COLIG_2A6_pose1
     RDKit          3D

 45 48  0  0  0  0  0  0  0  0999 V2000
    7.2120   42.5960   49.3080 C   0  0  0  0  0  0  0  0  0  0  0  0
    6.9790   43.9190   49.6710 C   0  0  0  0  0  0  0  0  0  0  0  0
    5.8510   44.2550   50.4290 C   0  0  0  0  0  0  0  0  0  0  0  0
    4.9370   43.2800   50.8410 C   0  0  0  0  0  0  0  0  0  0  0  0
    3.7930   43.5490   51.6000 N   0  0  0  0  0  0  0  0  0  0  0  0
    3.5580   44.2030   52.8090 C   0  0  0  0  0  0  0  0  0  0  0  0
    4.6270   44.8960   53.2640 N   0  0  0  0  0  0  0  0  0  0  0  0
    4.5330   45.5740   54.4240 C   0  0  0  0  0  0  0  0  0  0  0  0
    5.5930   46.2890   54.9350 O   0  0  0  0  0  0  0  0  0  0  0  0
    6.8430   46.0630   54.2750 C   0  0  0  0  0  0  0  0  0  0  0  0
    7.4830   47.3830   53.7980 C   0  0  0  0  0  0  0  0  0  0  0  0
    8.9070   47.5460   54.3510 C   0  0  0  0  0  0  0  0  0  0  0  0
    9.9200   46.6260   53.6720 C   0  0  0  0  0  0  0  0  0  0  0  0
    9.8960   46.7840   52.1540 C   0  0  0  0  0  0  0  0  0  0  0  0
    8.4920   46.5990   51.5830 C   0  0  0  0  0  0  0  0  0  0  0  0
    7.4810   47.5190   52.2650 C   0  0  0  0  0  0  0  0  0  0  0  0
    3.3440   45.5260   55.0980 C   0  0  0  0  0  0  0  0  0  0  0  0
    2.8710   46.0560   56.2640 N   0  0  0  0  0  0  0  0  0  0  0  0
    1.5750   45.6380   56.4000 C   0  0  0  0  0  0  0  0  0  0  0  0
    1.1990   44.8780   55.3940 N   0  0  0  0  0  0  0  0  0  0  0  0
    2.2970   44.8020   54.5770 C   0  0  0  0  0  0  0  0  0  0  0  0
    2.3740   44.1230   53.4240 N   0  0  0  0  0  0  0  0  0  0  0  0
    5.1930   41.9500   50.4630 C   0  0  0  0  0  0  0  0  0  0  0  0
    6.3170   41.6090   49.7050 C   0  0  0  0  0  0  0  0  0  0  0  0
    8.0979   42.3330   48.7113 H   0  0  0  0  0  0  0  0  0  0  0  0
    7.6842   44.7042   49.3610 H   0  0  0  0  0  0  0  0  0  0  0  0
    5.6804   45.3058   50.7058 H   0  0  0  0  0  0  0  0  0  0  0  0
    2.9140   43.2180   51.2300 H   0  0  0  0  0  0  0  0  0  0  0  0
    7.5308   45.5657   54.9747 H   0  0  0  0  0  0  0  0  0  0  0  0
    6.6559   45.4339   53.3923 H   0  0  0  0  0  0  0  0  0  0  0  0
    6.8568   48.1937   54.1988 H   0  0  0  0  0  0  0  0  0  0  0  0
    9.2243   48.5884   54.2005 H   0  0  0  0  0  0  0  0  0  0  0  0
    8.8791   47.2750   55.4167 H   0  0  0  0  0  0  0  0  0  0  0  0
   10.9272   46.8710   54.0402 H   0  0  0  0  0  0  0  0  0  0  0  0
    9.6548   45.5860   53.9131 H   0  0  0  0  0  0  0  0  0  0  0  0
   10.2547   47.7913   51.8958 H   0  0  0  0  0  0  0  0  0  0  0  0
   10.5445   46.0082   51.7208 H   0  0  0  0  0  0  0  0  0  0  0  0
    8.5117   46.8259   50.5068 H   0  0  0  0  0  0  0  0  0  0  0  0
    8.1834   45.5581   51.7598 H   0  0  0  0  0  0  0  0  0  0  0  0
    7.7233   48.5600   52.0051 H   0  0  0  0  0  0  0  0  0  0  0  0
    6.4809   47.2294   51.9102 H   0  0  0  0  0  0  0  0  0  0  0  0
    3.3860   46.6450   56.9030 H   0  0  0  0  0  0  0  0  0  0  0  0
    0.9265   45.9050   57.2474 H   0  0  0  0  0  0  0  0  0  0  0  0
    4.4926   41.1596   50.7709 H   0  0  0  0  0  0  0  0  0  0  0  0
    6.4932   40.5605   49.4229 H   0  0  0  0  0  0  0  0  0  0  0  0
  1  2  2  0
  2  3  1  0
  3  4  2  0
  4  5  1  0
  5  6  1  0
  6  7  2  0
  7  8  1  0
  8  9  1  0
  9 10  1  0
 10 11  1  0
 11 12  1  0
 12 13  1  0
 13 14  1  0
 14 15  1  0
 15 16  1  0
  8 17  2  0
 17 18  1  0
 18 19  1  0
 19 20  2  0
 20 21  1  0
 21 22  2  0
  4 23  1  0
 23 24  2  0
 24  1  1  0
 22  6  1  0
 16 11  1  0
 21 17  1  0
  1 25  1  0
  2 26  1  0
  3 27  1  0
  5 28  1  0
 10 29  1  0
 10 30  1  0
 11 31  1  0
 12 32  1  0
 12 33  1  0
 13 34  1  0
 13 35  1  0
 14 36  1  0
 14 37  1  0
 15 38  1  0
 15 39  1  0
 16 40  1  0
 16 41  1  0
 18 42  1  0
 19 43  1  0
 23 44  1  0
 24 45  1  0
M  END
>  <meeko>  (1) 
{"is_sidechain": false}

>  <CID>  (1) 
COLIG_2A6

>  <pose_index>  (1) 
1

>  <docking_score>  (1) 
-9.66

>  <num_viable_poses>  (1) 
5

>  <rmsd_pairwise_std>  (1) 
0.24390093590748063

>  <rmsd_to_best_std>  (1) 
0.18327107615123675

>  <MWT>  (1) 
323.39999999999964

>  <TPSA>  (1) 
75.72

>  <logP>  (1) 
4.055600000000003

>  <HBD>  (1) 
2

>  <HBA>  (1) 
5

>  <SMILES>  (1) 
[H]c1c([H])c([H])c(N([H])c2nc(OC([H])([H])C3([H])C([H])([H])C([H])([H])C([H])([H])C([H])([H])C3([H])[H])c3c(n2)nc([H])n3[H])c([H])c1[H]

$$$$
