Z1041114218_pose1
     RDKit          3D

 50 54  0  0  0  0  0  0  0  0999 V2000
    5.7580   41.5450   48.8070 C   0  0  0  0  0  0  0  0  0  0  0  0
    4.5880   40.7930   48.7630 C   0  0  0  0  0  0  0  0  0  0  0  0
    3.6070   40.9690   49.7440 C   0  0  0  0  0  0  0  0  0  0  0  0
    3.7680   41.9040   50.7780 C   0  0  0  0  0  0  0  0  0  0  0  0
    2.7580   42.0200   51.7460 N   0  0  0  0  0  0  0  0  0  0  0  0
    2.2760   43.1390   52.4840 C   0  0  0  0  0  0  0  0  0  0  0  0
    3.1360   44.0100   53.0480 N   0  0  0  0  0  0  0  0  0  0  0  0
    2.6470   45.0280   53.7590 C   0  0  0  0  0  0  0  0  0  0  0  0
    3.5260   45.9160   54.3540 N   0  0  0  0  0  0  0  0  0  0  0  0
    4.4350   45.4190   55.4000 C   0  0  0  0  0  0  0  0  0  0  0  0
    5.9070   45.4430   54.9270 C   0  0  0  0  0  0  0  0  0  0  0  0
    6.3360   46.7990   54.4810 N   0  0  0  0  0  0  0  0  0  0  0  0
    7.4920   46.7790   53.6890 C   0  0  0  0  0  0  0  0  0  0  0  0
    8.7220   47.1660   54.2520 C   0  0  0  0  0  0  0  0  0  0  0  0
    9.9070   47.1630   53.5100 C   0  0  0  0  0  0  0  0  0  0  0  0
    9.8900   46.7710   52.1770 C   0  0  0  0  0  0  0  0  0  0  0  0
    8.6890   46.3850   51.5920 C   0  0  0  0  0  0  0  0  0  0  0  0
    7.5050   46.3920   52.3420 C   0  0  0  0  0  0  0  0  0  0  0  0
    5.2260   47.7220   54.1520 C   0  0  0  0  0  0  0  0  0  0  0  0
    4.0500   46.9830   53.4820 C   0  0  0  0  0  0  0  0  0  0  0  0
    1.3390   45.2030   53.9450 N   0  0  0  0  0  0  0  0  0  0  0  0
    0.4900   44.3480   53.3890 C   0  0  0  0  0  0  0  0  0  0  0  0
   -0.8170   44.5650   53.5840 N   0  0  0  0  0  0  0  0  0  0  0  0
   -1.6960   43.7080   53.0160 C   0  0  0  0  0  0  0  0  0  0  0  0
   -1.2920   42.6390   52.2500 C   0  0  0  0  0  0  0  0  0  0  0  0
    0.0120   42.3910   52.0270 N   0  0  0  0  0  0  0  0  0  0  0  0
    0.8970   43.2560   52.6170 C   0  0  0  0  0  0  0  0  0  0  0  0
    4.9600   42.6340   50.8150 C   0  0  0  0  0  0  0  0  0  0  0  0
    5.9460   42.4620   49.8370 C   0  0  0  0  0  0  0  0  0  0  0  0
    6.5289   41.4156   48.0331 H   0  0  0  0  0  0  0  0  0  0  0  0
    4.4348   40.0604   47.9569 H   0  0  0  0  0  0  0  0  0  0  0  0
    2.6904   40.3621   49.7043 H   0  0  0  0  0  0  0  0  0  0  0  0
    2.0420   41.2980   51.7080 H   0  0  0  0  0  0  0  0  0  0  0  0
    4.3355   46.0547   56.2922 H   0  0  0  0  0  0  0  0  0  0  0  0
    4.1623   44.3784   55.6295 H   0  0  0  0  0  0  0  0  0  0  0  0
    6.5513   45.1242   55.7596 H   0  0  0  0  0  0  0  0  0  0  0  0
    5.9953   44.7625   54.0673 H   0  0  0  0  0  0  0  0  0  0  0  0
    8.7522   47.4798   55.3058 H   0  0  0  0  0  0  0  0  0  0  0  0
   10.8521   47.4708   53.9812 H   0  0  0  0  0  0  0  0  0  0  0  0
   10.8196   46.7661   51.5890 H   0  0  0  0  0  0  0  0  0  0  0  0
    8.6681   46.0732   50.5373 H   0  0  0  0  0  0  0  0  0  0  0  0
    6.5636   46.0865   51.8620 H   0  0  0  0  0  0  0  0  0  0  0  0
    4.8686   48.1946   55.0788 H   0  0  0  0  0  0  0  0  0  0  0  0
    5.6044   48.4759   53.4460 H   0  0  0  0  0  0  0  0  0  0  0  0
    3.2455   47.7035   53.2732 H   0  0  0  0  0  0  0  0  0  0  0  0
    4.4116   46.5252   52.5494 H   0  0  0  0  0  0  0  0  0  0  0  0
   -2.7725   43.8717   53.1722 H   0  0  0  0  0  0  0  0  0  0  0  0
   -2.0499   41.9736   51.8110 H   0  0  0  0  0  0  0  0  0  0  0  0
    5.1257   43.3566   51.6276 H   0  0  0  0  0  0  0  0  0  0  0  0
    6.8724   43.0533   49.8824 H   0  0  0  0  0  0  0  0  0  0  0  0
  1  2  2  0
  2  3  1  0
  3  4  2  0
  4  5  1  0
  5  6  1  0
  6  7  2  0
  7  8  1  0
  8  9  1  0
  9 10  1  0
 10 11  1  0
 11 12  1  0
 12 13  1  0
 13 14  2  0
 14 15  1  0
 15 16  2  0
 16 17  1  0
 17 18  2  0
 12 19  1  0
 19 20  1  0
  8 21  2  0
 21 22  1  0
 22 23  2  0
 23 24  1  0
 24 25  2  0
 25 26  1  0
 26 27  2  0
  4 28  1  0
 28 29  2  0
 29  1  1  0
 27  6  1  0
 20  9  1  0
 27 22  1  0
 18 13  1  0
  1 30  1  0
  2 31  1  0
  3 32  1  0
  5 33  1  0
 10 34  1  0
 10 35  1  0
 11 36  1  0
 11 37  1  0
 14 38  1  0
 15 39  1  0
 16 40  1  0
 17 41  1  0
 18 42  1  0
 19 43  1  0
 19 44  1  0
 20 45  1  0
 20 46  1  0
 24 47  1  0
 25 48  1  0
 28 49  1  0
 29 50  1  0
M  END
>  <meeko>  (1) 
{"is_sidechain": false}

>  <CID>  (1) 
Z1041114218

>  <pose_index>  (1) 
1

>  <docking_score>  (1) 
-10.583

>  <num_viable_poses>  (1) 
5

>  <rmsd_pairwise_std>  (1) 
0.3562496578334516

>  <rmsd_to_best_std>  (1) 
0.42334988941301993

>  <MWT>  (1) 
383.4589999999997

>  <TPSA>  (1) 
70.07000000000001

>  <logP>  (1) 
3.490000000000002

>  <HBD>  (1) 
1

>  <HBA>  (1) 
7

>  <SMILES>  (1) 
[H]c1nc2nc(N3C([H])([H])C([H])([H])N(c4c([H])c([H])c([H])c([H])c4[H])C([H])([H])C3([H])[H])nc(N([H])c3c([H])c([H])c([H])c([H])c3[H])c2nc1[H]

$$$$
