Z107740192_pose1
     RDKit          3D

 54 57  0  0  0  0  0  0  0  0999 V2000
    6.1100   44.7170   56.1210 N   0  0  0  0  0  0  0  0  0  0  0  0
    5.4760   44.8650   55.1580 C   0  0  0  0  0  0  0  0  0  0  0  0
    4.6490   45.1490   53.9890 C   0  0  1  0  0  0  0  0  0  0  0  0
    3.1640   45.0630   54.2180 C   0  0  0  0  0  0  0  0  0  0  0  0
    2.6810   45.4490   55.4320 N   0  0  0  0  0  0  0  0  0  0  0  0
    1.3610   45.3150   55.6470 C   0  0  0  0  0  0  0  0  0  0  0  0
    0.8160   45.7010   56.8660 C   0  0  0  0  0  0  0  0  0  0  0  0
   -0.5480   45.5690   57.1240 C   0  0  0  0  0  0  0  0  0  0  0  0
   -1.3810   45.0400   56.1470 C   0  0  0  0  0  0  0  0  0  0  0  0
   -0.8420   44.6500   54.9200 C   0  0  0  0  0  0  0  0  0  0  0  0
    0.5170   44.7790   54.6530 C   0  0  0  0  0  0  0  0  0  0  0  0
    1.0010   44.3930   53.4570 N   0  0  0  0  0  0  0  0  0  0  0  0
    2.3200   44.5440   53.2210 C   0  0  0  0  0  0  0  0  0  0  0  0
    2.8520   44.1670   51.9700 N   0  0  0  0  0  0  0  0  0  0  0  0
    2.8590   42.7190   51.7300 C   0  0  0  0  0  0  0  0  0  0  0  0
    4.2240   42.2840   51.1610 C   0  0  0  0  0  0  0  0  0  0  0  0
    5.0460   43.4620   50.6200 C   0  0  0  0  0  0  0  0  0  0  0  0
    6.4370   43.0220   50.1560 C   0  0  0  0  0  0  0  0  0  0  0  0
    6.4980   41.5690   49.6840 C   0  0  0  0  0  0  0  0  0  0  0  0
    5.1800   41.1250   49.0670 C   0  0  0  0  0  0  0  0  0  0  0  0
    4.0170   41.2260   50.0580 C   0  0  0  0  0  0  0  0  0  0  0  0
    5.0150   46.8210   53.4930 S   0  0  0  0  0  0  0  0  0  0  0  0
    4.9230   47.7340   54.6170 O   0  0  0  0  0  0  0  0  0  0  0  0
    4.2870   47.1250   52.2670 O   0  0  0  0  0  0  0  0  0  0  0  0
    6.7350   46.7680   53.0050 C   0  0  0  0  0  0  0  0  0  0  0  0
    7.0810   46.3140   51.7260 C   0  0  0  0  0  0  0  0  0  0  0  0
    8.4270   46.2620   51.3620 C   0  0  0  0  0  0  0  0  0  0  0  0
    9.4040   46.6470   52.2740 C   0  0  0  0  0  0  0  0  0  0  0  0
   10.6950   46.5930   51.9210 F   0  0  0  0  0  0  0  0  0  0  0  0
    9.0640   47.0800   53.5530 C   0  0  0  0  0  0  0  0  0  0  0  0
    7.7210   47.1390   53.9290 C   0  0  0  0  0  0  0  0  0  0  0  0
    4.8886   44.3832   53.2366 H   0  0  0  0  0  0  0  0  0  0  0  0
    1.4736   46.1188   57.6425 H   0  0  0  0  0  0  0  0  0  0  0  0
   -0.9611   45.8816   58.0944 H   0  0  0  0  0  0  0  0  0  0  0  0
   -2.4585   44.9291   56.3388 H   0  0  0  0  0  0  0  0  0  0  0  0
   -1.5054   44.2321   54.1485 H   0  0  0  0  0  0  0  0  0  0  0  0
    2.2830   44.6290   51.2470 H   0  0  0  0  0  0  0  0  0  0  0  0
    2.6751   42.1920   52.6779 H   0  0  0  0  0  0  0  0  0  0  0  0
    2.0703   42.4700   51.0048 H   0  0  0  0  0  0  0  0  0  0  0  0
    4.8001   41.8513   51.9921 H   0  0  0  0  0  0  0  0  0  0  0  0
    4.5113   43.9073   49.7681 H   0  0  0  0  0  0  0  0  0  0  0  0
    5.1729   44.1914   51.4336 H   0  0  0  0  0  0  0  0  0  0  0  0
    6.7463   43.6707   49.3232 H   0  0  0  0  0  0  0  0  0  0  0  0
    7.1063   43.1054   51.0249 H   0  0  0  0  0  0  0  0  0  0  0  0
    7.2951   41.4710   48.9323 H   0  0  0  0  0  0  0  0  0  0  0  0
    6.7012   40.9317   50.5572 H   0  0  0  0  0  0  0  0  0  0  0  0
    4.9622   41.7636   48.1982 H   0  0  0  0  0  0  0  0  0  0  0  0
    5.2826   40.0704   48.7715 H   0  0  0  0  0  0  0  0  0  0  0  0
    3.1062   41.4839   49.4976 H   0  0  0  0  0  0  0  0  0  0  0  0
    3.9420   40.2510   50.5617 H   0  0  0  0  0  0  0  0  0  0  0  0
    6.3005   46.0020   51.0165 H   0  0  0  0  0  0  0  0  0  0  0  0
    8.7144   45.9178   50.3575 H   0  0  0  0  0  0  0  0  0  0  0  0
    9.8502   47.3742   54.2639 H   0  0  0  0  0  0  0  0  0  0  0  0
    7.4400   47.4728   54.9388 H   0  0  0  0  0  0  0  0  0  0  0  0
  1  2  3  0
  2  3  1  0
  3  4  1  0
  4  5  2  0
  5  6  1  0
  6  7  2  0
  7  8  1  0
  8  9  2  0
  9 10  1  0
 10 11  2  0
 11 12  1  0
 12 13  2  0
 13 14  1  0
 14 15  1  0
 15 16  1  0
 16 17  1  0
 17 18  1  0
 18 19  1  0
 19 20  1  0
 20 21  1  0
  3 22  1  0
 22 23  2  0
 22 24  2  0
 22 25  1  0
 25 26  2  0
 26 27  1  0
 27 28  2  0
 28 29  1  0
 28 30  1  0
 30 31  2  0
 13  4  1  0
 21 16  1  0
 31 25  1  0
 11  6  1  0
  3 32  1  6
  7 33  1  0
  8 34  1  0
  9 35  1  0
 10 36  1  0
 14 37  1  0
 15 38  1  0
 15 39  1  0
 16 40  1  0
 17 41  1  0
 17 42  1  0
 18 43  1  0
 18 44  1  0
 19 45  1  0
 19 46  1  0
 20 47  1  0
 20 48  1  0
 21 49  1  0
 21 50  1  0
 26 51  1  0
 27 52  1  0
 30 53  1  0
 31 54  1  0
M  END
>  <meeko>  (1) 
{"is_sidechain": false}

>  <CID>  (1) 
Z107740192

>  <pose_index>  (1) 
1

>  <docking_score>  (1) 
-9.921

>  <num_viable_poses>  (1) 
6

>  <rmsd_pairwise_std>  (1) 
0.23034738609872116

>  <rmsd_to_best_std>  (1) 
0.2521884824733044

>  <MWT>  (1) 
438.52799999999974

>  <TPSA>  (1) 
95.74000000000001

>  <logP>  (1) 
4.799680000000004

>  <HBD>  (1) 
1

>  <HBA>  (1) 
6

>  <SMILES>  (1) 
[H]c1c([H])c(S(=O)(=O)C([H])(C#N)c2nc3c([H])c([H])c([H])c([H])c3nc2N([H])C([H])([H])C2([H])C([H])([H])C([H])([H])C([H])([H])C([H])([H])C2([H])[H])c([H])c([H])c1F

$$$$
