Z24682342_pose1
     RDKit          3D

 46 49  0  0  0  0  0  0  0  0999 V2000
    2.1630   45.7190   54.7000 O   0  0  0  0  0  0  0  0  0  0  0  0
    2.1740   45.7680   53.4680 C   0  0  0  0  0  0  0  0  0  0  0  0
    2.7590   46.9620   52.7320 C   0  0  0  0  0  0  0  0  0  0  0  0
    4.0180   47.7590   53.7800 S   0  0  0  0  0  0  0  0  0  0  0  0
    5.5180   47.1600   53.0510 C   0  0  0  0  0  0  0  0  0  0  0  0
    5.4540   46.3640   51.9840 N   0  0  0  0  0  0  0  0  0  0  0  0
    6.6060   45.9160   51.4590 C   0  0  0  0  0  0  0  0  0  0  0  0
    6.5630   45.0830   50.3080 N   0  0  0  0  0  0  0  0  0  0  0  0
    6.0610   43.7640   50.2040 C   0  0  0  0  0  0  0  0  0  0  0  0
    4.9460   43.3980   50.9710 C   0  0  0  0  0  0  0  0  0  0  0  0
    4.3850   42.1190   50.8710 C   0  0  0  0  0  0  0  0  0  0  0  0
    4.9190   41.1940   49.9790 C   0  0  0  0  0  0  0  0  0  0  0  0
    5.9990   41.5550   49.1790 C   0  0  0  0  0  0  0  0  0  0  0  0
    6.5540   42.8340   49.2830 C   0  0  0  0  0  0  0  0  0  0  0  0
    7.8530   46.2620   52.0070 C   0  0  0  0  0  0  0  0  0  0  0  0
    9.1140   45.8140   51.5320 C   0  0  0  0  0  0  0  0  0  0  0  0
   10.2950   46.2240   52.1440 C   0  0  0  0  0  0  0  0  0  0  0  0
   10.2350   47.0800   53.2340 C   0  0  0  0  0  0  0  0  0  0  0  0
    8.9930   47.5100   53.7090 C   0  0  0  0  0  0  0  0  0  0  0  0
    7.8000   47.1140   53.1160 C   0  0  0  0  0  0  0  0  0  0  0  0
    6.6540   47.5620   53.6320 N   0  0  0  0  0  0  0  0  0  0  0  0
    1.6640   44.7360   52.7070 N   0  0  0  0  0  0  0  0  0  0  0  0
    1.1190   43.5430   53.3310 C   0  0  0  0  0  0  0  0  0  0  0  0
    0.9240   42.5680   52.1790 C   0  0  0  0  0  0  0  0  0  0  0  0
    0.6260   43.4890   51.0050 C   0  0  0  0  0  0  0  0  0  0  0  0
    1.5480   44.6740   51.2590 C   0  0  0  0  0  0  0  0  0  0  0  0
    3.2228   46.6238   51.7936 H   0  0  0  0  0  0  0  0  0  0  0  0
    1.9593   47.6824   52.5051 H   0  0  0  0  0  0  0  0  0  0  0  0
    6.3090   45.6400   49.5020 H   0  0  0  0  0  0  0  0  0  0  0  0
    4.5038   44.1289   51.6640 H   0  0  0  0  0  0  0  0  0  0  0  0
    3.5228   41.8456   51.4971 H   0  0  0  0  0  0  0  0  0  0  0  0
    4.4901   40.1837   49.9067 H   0  0  0  0  0  0  0  0  0  0  0  0
    6.4171   40.8322   48.4630 H   0  0  0  0  0  0  0  0  0  0  0  0
    7.3931   43.1138   48.6290 H   0  0  0  0  0  0  0  0  0  0  0  0
    9.1581   45.1337   50.6687 H   0  0  0  0  0  0  0  0  0  0  0  0
   11.2667   45.8726   51.7669 H   0  0  0  0  0  0  0  0  0  0  0  0
   11.1607   47.4187   53.7222 H   0  0  0  0  0  0  0  0  0  0  0  0
    8.9586   48.1825   54.5788 H   0  0  0  0  0  0  0  0  0  0  0  0
    1.8229   43.1349   54.0713 H   0  0  0  0  0  0  0  0  0  0  0  0
    0.1831   43.7438   53.8730 H   0  0  0  0  0  0  0  0  0  0  0  0
    1.8357   41.9794   51.9994 H   0  0  0  0  0  0  0  0  0  0  0  0
    0.1315   41.8279   52.3641 H   0  0  0  0  0  0  0  0  0  0  0  0
    0.8639   43.0005   50.0486 H   0  0  0  0  0  0  0  0  0  0  0  0
   -0.4346   43.7717   50.9332 H   0  0  0  0  0  0  0  0  0  0  0  0
    2.5320   44.5082   50.7961 H   0  0  0  0  0  0  0  0  0  0  0  0
    1.1591   45.6085   50.8285 H   0  0  0  0  0  0  0  0  0  0  0  0
  1  2  2  0
  2  3  1  0
  3  4  1  0
  4  5  1  0
  5  6  2  0
  6  7  1  0
  7  8  1  0
  8  9  1  0
  9 10  2  0
 10 11  1  0
 11 12  2  0
 12 13  1  0
 13 14  2  0
  7 15  2  0
 15 16  1  0
 16 17  2  0
 17 18  1  0
 18 19  2  0
 19 20  1  0
 20 21  2  0
  2 22  1  0
 22 23  1  0
 23 24  1  0
 24 25  1  0
 25 26  1  0
 21  5  1  0
 26 22  1  0
 14  9  1  0
 20 15  1  0
  3 27  1  0
  3 28  1  0
  8 29  1  0
 10 30  1  0
 11 31  1  0
 12 32  1  0
 13 33  1  0
 14 34  1  0
 16 35  1  0
 17 36  1  0
 18 37  1  0
 19 38  1  0
 23 39  1  0
 23 40  1  0
 24 41  1  0
 24 42  1  0
 25 43  1  0
 25 44  1  0
 26 45  1  0
 26 46  1  0
M  END
>  <meeko>  (1) 
{"is_sidechain": false}

>  <CID>  (1) 
Z24682342

>  <pose_index>  (1) 
1

>  <docking_score>  (1) 
-10.003

>  <num_viable_poses>  (1) 
5

>  <rmsd_pairwise_std>  (1) 
0.5011074319144366

>  <rmsd_to_best_std>  (1) 
0.44411451158586207

>  <MWT>  (1) 
364.4739999999997

>  <TPSA>  (1) 
58.120000000000005

>  <logP>  (1) 
4.087900000000003

>  <HBD>  (1) 
1

>  <HBA>  (1) 
5

>  <SMILES>  (1) 
[H]c1c([H])c([H])c(N([H])c2nc(SC([H])([H])C(=O)N3C([H])([H])C([H])([H])C([H])([H])C3([H])[H])nc3c([H])c([H])c([H])c([H])c23)c([H])c1[H]

$$$$
