Z56974472_pose1
     RDKit          3D

 54 57  0  0  0  0  0  0  0  0999 V2000
   10.2740   45.4300   51.1870 C   0  0  0  0  0  0  0  0  0  0  0  0
    9.5290   46.2420   52.2150 C   0  0  0  0  0  0  0  0  0  0  0  0
   10.2600   46.8150   53.2720 C   0  0  0  0  0  0  0  0  0  0  0  0
    9.6200   47.5570   54.2600 C   0  0  0  0  0  0  0  0  0  0  0  0
    8.2450   47.7360   54.2010 C   0  0  0  0  0  0  0  0  0  0  0  0
    7.5100   47.1750   53.1520 C   0  0  0  0  0  0  0  0  0  0  0  0
    8.1280   46.4350   52.1330 C   0  0  0  0  0  0  0  0  0  0  0  0
    7.4010   45.8330   51.0950 N   0  0  0  0  0  0  0  0  0  0  0  0
    6.4640   44.8010   51.0420 C   0  0  0  0  0  0  0  0  0  0  0  0
    6.6970   43.8900   50.1110 N   0  0  0  0  0  0  0  0  0  0  0  0
    5.8340   42.8890   50.0440 C   0  0  0  0  0  0  0  0  0  0  0  0
    5.9630   41.8650   49.1060 N   0  0  0  0  0  0  0  0  0  0  0  0
    5.3110   41.5420   47.9050 C   0  0  0  0  0  0  0  0  0  0  0  0
    5.8060   41.9320   46.6520 C   0  0  0  0  0  0  0  0  0  0  0  0
    5.1610   41.5750   45.4640 C   0  0  0  0  0  0  0  0  0  0  0  0
    4.0060   40.8060   45.5030 C   0  0  0  0  0  0  0  0  0  0  0  0
    3.5010   40.3900   46.7300 C   0  0  0  0  0  0  0  0  0  0  0  0
    4.1430   40.7410   47.9320 C   0  0  0  0  0  0  0  0  0  0  0  0
    3.5520   40.2480   49.2280 C   0  0  0  0  0  0  0  0  0  0  0  0
    4.8000   42.7560   50.8660 N   0  0  0  0  0  0  0  0  0  0  0  0
    4.6340   43.6970   51.7900 C   0  0  0  0  0  0  0  0  0  0  0  0
    3.5380   43.5990   52.6660 N   0  0  0  0  0  0  0  0  0  0  0  0
    3.2650   44.8360   53.4040 C   0  0  0  0  0  0  0  0  0  0  0  0
    2.1940   44.6010   54.4680 C   0  0  0  0  0  0  0  0  0  0  0  0
    0.9410   43.9730   53.8710 C   0  0  0  0  0  0  0  0  0  0  0  0
    1.3000   42.6880   53.1330 C   0  0  0  0  0  0  0  0  0  0  0  0
    2.3730   42.9340   52.0730 C   0  0  0  0  0  0  0  0  0  0  0  0
    5.4500   44.7370   51.8940 N   0  0  0  0  0  0  0  0  0  0  0  0
   10.9335   44.7112   51.6952 H   0  0  0  0  0  0  0  0  0  0  0  0
    9.5543   44.8859   50.5577 H   0  0  0  0  0  0  0  0  0  0  0  0
   10.8779   46.1003   50.5577 H   0  0  0  0  0  0  0  0  0  0  0  0
   11.3501   46.6748   53.3178 H   0  0  0  0  0  0  0  0  0  0  0  0
   10.2006   47.9992   55.0831 H   0  0  0  0  0  0  0  0  0  0  0  0
    7.7329   48.3197   54.9801 H   0  0  0  0  0  0  0  0  0  0  0  0
    6.4196   47.3176   53.1252 H   0  0  0  0  0  0  0  0  0  0  0  0
    7.4220   46.2970   50.2000 H   0  0  0  0  0  0  0  0  0  0  0  0
    6.5810   41.1640   49.4860 H   0  0  0  0  0  0  0  0  0  0  0  0
    6.7252   42.5342   46.6027 H   0  0  0  0  0  0  0  0  0  0  0  0
    5.5694   41.9040   44.4971 H   0  0  0  0  0  0  0  0  0  0  0  0
    3.4940   40.5277   44.5701 H   0  0  0  0  0  0  0  0  0  0  0  0
    2.5873   39.7783   46.7614 H   0  0  0  0  0  0  0  0  0  0  0  0
    4.0930   40.6993   50.0728 H   0  0  0  0  0  0  0  0  0  0  0  0
    2.4905   40.5322   49.2785 H   0  0  0  0  0  0  0  0  0  0  0  0
    3.6412   39.1528   49.2785 H   0  0  0  0  0  0  0  0  0  0  0  0
    4.1900   45.1781   53.8912 H   0  0  0  0  0  0  0  0  0  0  0  0
    2.9030   45.5980   52.6981 H   0  0  0  0  0  0  0  0  0  0  0  0
    2.5980   43.9286   55.2392 H   0  0  0  0  0  0  0  0  0  0  0  0
    1.9191   45.5740   54.9012 H   0  0  0  0  0  0  0  0  0  0  0  0
    0.2296   43.7427   54.6778 H   0  0  0  0  0  0  0  0  0  0  0  0
    0.4863   44.6805   53.1620 H   0  0  0  0  0  0  0  0  0  0  0  0
    1.6761   41.9518   53.8587 H   0  0  0  0  0  0  0  0  0  0  0  0
    0.3961   42.3141   52.6299 H   0  0  0  0  0  0  0  0  0  0  0  0
    2.6856   41.9706   51.6440 H   0  0  0  0  0  0  0  0  0  0  0  0
    1.9555   43.5812   51.2877 H   0  0  0  0  0  0  0  0  0  0  0  0
  1  2  1  0
  2  3  2  0
  3  4  1  0
  4  5  2  0
  5  6  1  0
  6  7  2  0
  7  8  1  0
  8  9  1  0
  9 10  2  0
 10 11  1  0
 11 12  1  0
 12 13  1  0
 13 14  2  0
 14 15  1  0
 15 16  2  0
 16 17  1  0
 17 18  2  0
 18 19  1  0
 11 20  2  0
 20 21  1  0
 21 22  1  0
 22 23  1  0
 23 24  1  0
 24 25  1  0
 25 26  1  0
 26 27  1  0
 21 28  2  0
  7  2  1  0
 28  9  1  0
 18 13  1  0
 27 22  1  0
  1 29  1  0
  1 30  1  0
  1 31  1  0
  3 32  1  0
  4 33  1  0
  5 34  1  0
  6 35  1  0
  8 36  1  0
 12 37  1  0
 14 38  1  0
 15 39  1  0
 16 40  1  0
 17 41  1  0
 19 42  1  0
 19 43  1  0
 19 44  1  0
 23 45  1  0
 23 46  1  0
 24 47  1  0
 24 48  1  0
 25 49  1  0
 25 50  1  0
 26 51  1  0
 26 52  1  0
 27 53  1  0
 27 54  1  0
M  END
>  <meeko>  (1) 
{"is_sidechain": false}

>  <CID>  (1) 
Z56974472

>  <pose_index>  (1) 
1

>  <docking_score>  (1) 
-9.982

>  <num_viable_poses>  (1) 
7

>  <rmsd_pairwise_std>  (1) 
0.42617691349173537

>  <rmsd_to_best_std>  (1) 
0.5030465937987393

>  <MWT>  (1) 
374.4919999999996

>  <TPSA>  (1) 
65.97

>  <logP>  (1) 
4.965940000000003

>  <HBD>  (1) 
2

>  <HBA>  (1) 
6

>  <SMILES>  (1) 
[H]c1c([H])c([H])c(C([H])([H])[H])c(N([H])c2nc(N([H])c3c([H])c([H])c([H])c([H])c3C([H])([H])[H])nc(N3C([H])([H])C([H])([H])C([H])([H])C([H])([H])C3([H])[H])n2)c1[H]

$$$$
