Z57110395_pose1
     RDKit          3D

 40 43  0  0  0  0  0  0  0  0999 V2000
   -0.5130   42.3150   53.8400 O   0  0  0  0  0  0  0  0  0  0  0  0
   -0.6640   43.5310   54.1830 C   0  0  0  0  0  0  0  0  0  0  0  0
   -1.7350   44.0480   54.6320 O   0  0  0  0  0  1  0  0  0  0  0  0
    0.5410   44.4430   54.0450 C   0  0  0  0  0  0  0  0  0  0  0  0
    0.7400   45.2130   52.8920 C   0  0  0  0  0  0  0  0  0  0  0  0
    1.8550   46.0560   52.7630 C   0  0  0  0  0  0  0  0  0  0  0  0
    2.8070   46.1570   53.7800 C   0  0  0  0  0  0  0  0  0  0  0  0
    3.9410   46.9750   53.7170 N   0  0  0  0  0  0  0  0  0  0  0  0
    5.2760   46.7620   53.3950 C   0  0  0  0  0  0  0  0  0  0  0  0
    5.4780   45.9560   52.3440 N   0  0  0  0  0  0  0  0  0  0  0  0
    6.7540   45.7010   51.9810 C   0  0  0  0  0  0  0  0  0  0  0  0
    6.8670   44.7850   50.8340 C   0  0  0  0  0  0  0  0  0  0  0  0
    5.9150   43.7720   50.6350 C   0  0  0  0  0  0  0  0  0  0  0  0
    6.0130   42.8990   49.5490 C   0  0  0  0  0  0  0  0  0  0  0  0
    7.0700   43.0210   48.6500 C   0  0  0  0  0  0  0  0  0  0  0  0
    8.0330   44.0090   48.8400 C   0  0  0  0  0  0  0  0  0  0  0  0
    7.9350   44.8820   49.9250 C   0  0  0  0  0  0  0  0  0  0  0  0
    7.8600   46.2570   52.6360 C   0  0  0  0  0  0  0  0  0  0  0  0
    9.2260   46.0660   52.2890 C   0  0  0  0  0  0  0  0  0  0  0  0
   10.2400   46.6760   53.0220 C   0  0  0  0  0  0  0  0  0  0  0  0
    9.9070   47.4830   54.1010 C   0  0  0  0  0  0  0  0  0  0  0  0
    8.5630   47.6760   54.4330 C   0  0  0  0  0  0  0  0  0  0  0  0
    7.5330   47.0790   53.7150 C   0  0  0  0  0  0  0  0  0  0  0  0
    6.2740   47.3220   54.0860 N   0  0  0  0  0  0  0  0  0  0  0  0
    2.6050   45.3840   54.9360 C   0  0  0  0  0  0  0  0  0  0  0  0
    1.4930   44.5420   55.0670 C   0  0  0  0  0  0  0  0  0  0  0  0
    0.0088   45.1560   52.0722 H   0  0  0  0  0  0  0  0  0  0  0  0
    1.9813   46.6477   51.8444 H   0  0  0  0  0  0  0  0  0  0  0  0
    3.8030   47.9480   53.9470 H   0  0  0  0  0  0  0  0  0  0  0  0
    5.0808   43.6645   51.3439 H   0  0  0  0  0  0  0  0  0  0  0  0
    5.2553   42.1150   49.4037 H   0  0  0  0  0  0  0  0  0  0  0  0
    7.1440   42.3378   47.7911 H   0  0  0  0  0  0  0  0  0  0  0  0
    8.8718   44.1016   48.1344 H   0  0  0  0  0  0  0  0  0  0  0  0
    8.7033   45.6557   50.0705 H   0  0  0  0  0  0  0  0  0  0  0  0
    9.4844   45.4283   51.4307 H   0  0  0  0  0  0  0  0  0  0  0  0
   11.2941   46.5201   52.7490 H   0  0  0  0  0  0  0  0  0  0  0  0
   10.6973   47.9686   54.6923 H   0  0  0  0  0  0  0  0  0  0  0  0
    8.3125   48.3201   55.2888 H   0  0  0  0  0  0  0  0  0  0  0  0
    3.3360   45.4413   55.7560 H   0  0  0  0  0  0  0  0  0  0  0  0
    1.3660   43.9504   55.9856 H   0  0  0  0  0  0  0  0  0  0  0  0
  1  2  2  0
  2  3  1  0
  2  4  1  0
  4  5  2  0
  5  6  1  0
  6  7  2  0
  7  8  1  0
  8  9  1  0
  9 10  2  0
 10 11  1  0
 11 12  1  0
 12 13  2  0
 13 14  1  0
 14 15  2  0
 15 16  1  0
 16 17  2  0
 11 18  2  0
 18 19  1  0
 19 20  2  0
 20 21  1  0
 21 22  2  0
 22 23  1  0
 23 24  2  0
  7 25  1  0
 25 26  2  0
 26  4  1  0
 24  9  1  0
 17 12  1  0
 23 18  1  0
  5 27  1  0
  6 28  1  0
  8 29  1  0
 13 30  1  0
 14 31  1  0
 15 32  1  0
 16 33  1  0
 17 34  1  0
 19 35  1  0
 20 36  1  0
 21 37  1  0
 22 38  1  0
 25 39  1  0
 26 40  1  0
M  CHG  1   3  -1
M  END
>  <meeko>  (1) 
{"is_sidechain": false}

>  <CID>  (1) 
Z57110395

>  <pose_index>  (1) 
1

>  <docking_score>  (1) 
-10.546

>  <num_viable_poses>  (1) 
7

>  <rmsd_pairwise_std>  (1) 
0.437934024225924

>  <rmsd_to_best_std>  (1) 
0.2648030557963227

>  <MWT>  (1) 
340.3619999999998

>  <TPSA>  (1) 
77.94

>  <logP>  (1) 
3.403900000000001

>  <HBD>  (1) 
1

>  <HBA>  (1) 
5

>  <SMILES>  (1) 
[H]c1c([H])c([H])c(-c2nc(N([H])c3c([H])c([H])c(C(=O)[O-])c([H])c3[H])nc3c([H])c([H])c([H])c([H])c23)c([H])c1[H]

$$$$
