123953120_pose1
     RDKit          3D

 46 49  0  0  0  0  0  0  0  0999 V2000
    7.8970   43.0510   48.4810 F   0  0  0  0  0  0  0  0  0  0  0  0
    6.8610   43.0480   49.3260 C   0  0  0  0  0  0  0  0  0  0  0  0
    6.4520   44.2360   49.9170 C   0  0  0  0  0  0  0  0  0  0  0  0
    5.3730   44.2260   50.8010 C   0  0  0  0  0  0  0  0  0  0  0  0
    4.6860   43.0350   51.0850 C   0  0  0  0  0  0  0  0  0  0  0  0
    3.6070   43.0890   51.9830 N   0  0  0  0  0  0  0  0  0  0  0  0
    3.4360   43.8830   53.1200 C   0  0  0  0  0  0  0  0  0  0  0  0
    2.1950   44.0220   53.6050 N   0  0  0  0  0  0  0  0  0  0  0  0
    2.1210   44.7800   54.7140 C   0  0  0  0  0  0  0  0  0  0  0  0
    0.9820   45.0970   55.3840 N   0  0  0  0  0  0  0  0  0  0  0  0
    1.3690   45.8470   56.3960 C   0  0  0  0  0  0  0  0  0  0  0  0
    2.7270   46.0340   56.3980 N   0  0  0  0  0  0  0  0  0  0  0  0
    3.2310   45.3340   55.3310 C   0  0  0  0  0  0  0  0  0  0  0  0
    4.4880   45.1020   54.8160 C   0  0  0  0  0  0  0  0  0  0  0  0
    5.6190   45.6530   55.3550 O   0  0  0  0  0  0  0  0  0  0  0  0
    6.0530   46.7810   54.5720 C   0  0  0  0  0  0  0  0  0  0  0  0
    7.3960   46.4310   53.9110 C   0  0  0  0  0  0  0  0  0  0  0  0
    7.3570   46.7260   52.4060 C   0  0  0  0  0  0  0  0  0  0  0  0
    8.6890   46.3960   51.7370 C   0  0  0  0  0  0  0  0  0  0  0  0
    9.8490   47.1300   52.4040 C   0  0  0  0  0  0  0  0  0  0  0  0
    9.8980   46.8500   53.9030 C   0  0  0  0  0  0  0  0  0  0  0  0
    8.5680   47.1680   54.5810 C   0  0  0  0  0  0  0  0  0  0  0  0
    4.5310   44.3890   53.6940 N   0  0  0  0  0  4  0  0  0  0  0  0
    5.1230   41.8430   50.4830 C   0  0  0  0  0  0  0  0  0  0  0  0
    6.2080   41.8520   49.6020 C   0  0  0  0  0  0  0  0  0  0  0  0
    6.9744   45.1770   49.6900 H   0  0  0  0  0  0  0  0  0  0  0  0
    5.0563   45.1633   51.2818 H   0  0  0  0  0  0  0  0  0  0  0  0
    2.7060   42.9820   51.5070 H   0  0  0  0  0  0  0  0  0  0  0  0
    0.6862   46.2710   57.1470 H   0  0  0  0  0  0  0  0  0  0  0  0
    3.2490   46.5690   57.0830 H   0  0  0  0  0  0  0  0  0  0  0  0
    5.3052   47.0037   53.7967 H   0  0  0  0  0  0  0  0  0  0  0  0
    6.1705   47.6639   55.2175 H   0  0  0  0  0  0  0  0  0  0  0  0
    7.5605   45.3522   54.0495 H   0  0  0  0  0  0  0  0  0  0  0  0
    6.5645   46.1195   51.9432 H   0  0  0  0  0  0  0  0  0  0  0  0
    7.1585   47.7993   52.2695 H   0  0  0  0  0  0  0  0  0  0  0  0
    8.8648   45.3124   51.8066 H   0  0  0  0  0  0  0  0  0  0  0  0
    8.6360   46.7183   50.6866 H   0  0  0  0  0  0  0  0  0  0  0  0
   10.7927   46.7976   51.9470 H   0  0  0  0  0  0  0  0  0  0  0  0
    9.7037   48.2106   52.2587 H   0  0  0  0  0  0  0  0  0  0  0  0
   10.1325   45.7867   54.0595 H   0  0  0  0  0  0  0  0  0  0  0  0
   10.6715   47.4940   54.3468 H   0  0  0  0  0  0  0  0  0  0  0  0
    8.6242   46.8628   55.6363 H   0  0  0  0  0  0  0  0  0  0  0  0
    8.3882   48.2495   54.4918 H   0  0  0  0  0  0  0  0  0  0  0  0
    5.4200   44.1960   53.2520 H   0  0  0  0  0  0  0  0  0  0  0  0
    4.6081   40.8970   50.7064 H   0  0  0  0  0  0  0  0  0  0  0  0
    6.5437   40.9172   49.1292 H   0  0  0  0  0  0  0  0  0  0  0  0
  1  2  1  0
  2  3  2  0
  3  4  1  0
  4  5  2  0
  5  6  1  0
  6  7  1  0
  7  8  2  0
  8  9  1  0
  9 10  1  0
 10 11  2  0
 11 12  1  0
 12 13  1  0
 13 14  1  0
 14 15  1  0
 15 16  1  0
 16 17  1  0
 17 18  1  0
 18 19  1  0
 19 20  1  0
 20 21  1  0
 21 22  1  0
 14 23  2  0
  5 24  1  0
 24 25  2  0
 25  2  1  0
 23  7  1  0
 13  9  2  0
 22 17  1  0
  3 26  1  0
  4 27  1  0
  6 28  1  0
 11 29  1  0
 12 30  1  0
 16 31  1  0
 16 32  1  0
 17 33  1  0
 18 34  1  0
 18 35  1  0
 19 36  1  0
 19 37  1  0
 20 38  1  0
 20 39  1  0
 21 40  1  0
 21 41  1  0
 22 42  1  0
 22 43  1  0
 23 44  1  0
 24 45  1  0
 25 46  1  0
M  CHG  1  23   1
M  END
>  <meeko>  (1) 
{"is_sidechain": false}

>  <CID>  (1) 
123953120

>  <pose_index>  (1) 
1

>  <docking_score>  (1) 
-9.798

>  <rmsd_to_best_selected>  (1) 
0.0

>  <MWT>  (1) 
342.3979999999997

>  <TPSA>  (1) 
76.97

>  <logP>  (1) 
3.613800000000002

>  <HBD>  (1) 
2

>  <HBA>  (1) 
4

>  <SMILES>  (1) 
[H]c1c([H])c(N([H])c2nc3nc([H])n([H])c3c(OC([H])([H])C3([H])C([H])([H])C([H])([H])C([H])([H])C([H])([H])C3([H])[H])[n+]2[H])c([H])c([H])c1F

$$$$
123953120_pose2
     RDKit          3D

 46 49  0  0  0  0  0  0  0  0999 V2000
    7.8017   43.6754   48.2857 F   0  0  0  0  0  0  0  0  0  0  0  0
    6.7805   43.6376   49.1470 C   0  0  0  0  0  0  0  0  0  0  0  0
    5.8737   44.6877   49.1843 C   0  0  0  0  0  0  0  0  0  0  0  0
    4.8124   44.6458   50.0883 C   0  0  0  0  0  0  0  0  0  0  0  0
    4.6421   43.5490   50.9471 C   0  0  0  0  0  0  0  0  0  0  0  0
    3.5524   43.5641   51.8344 N   0  0  0  0  0  0  0  0  0  0  0  0
    3.4339   44.1804   53.0837 C   0  0  0  0  0  0  0  0  0  0  0  0
    2.5987   43.6298   53.9753 N   0  0  0  0  0  0  0  0  0  0  0  0
    2.5615   44.2685   55.1592 C   0  0  0  0  0  0  0  0  0  0  0  0
    1.7788   43.9304   56.2176 N   0  0  0  0  0  0  0  0  0  0  0  0
    2.0608   44.8139   57.1546 C   0  0  0  0  0  0  0  0  0  0  0  0
    2.9963   45.7215   56.7312 N   0  0  0  0  0  0  0  0  0  0  0  0
    3.3464   45.3718   55.4516 C   0  0  0  0  0  0  0  0  0  0  0  0
    4.2307   45.8520   54.5113 C   0  0  0  0  0  0  0  0  0  0  0  0
    5.0044   46.9608   54.7246 O   0  0  0  0  0  0  0  0  0  0  0  0
    5.7908   47.2601   53.5556 C   0  0  0  0  0  0  0  0  0  0  0  0
    7.1462   46.5444   53.6808 C   0  0  0  0  0  0  0  0  0  0  0  0
    7.5705   45.9394   52.3356 C   0  0  0  0  0  0  0  0  0  0  0  0
    8.9217   45.2365   52.4405 C   0  0  0  0  0  0  0  0  0  0  0  0
   10.0008   46.1703   52.9804 C   0  0  0  0  0  0  0  0  0  0  0  0
    9.5903   46.7844   54.3165 C   0  0  0  0  0  0  0  0  0  0  0  0
    8.2356   47.4821   54.2251 C   0  0  0  0  0  0  0  0  0  0  0  0
    4.2164   45.2330   53.3343 N   0  0  0  0  0  4  0  0  0  0  0  0
    5.5765   42.5010   50.8996 C   0  0  0  0  0  0  0  0  0  0  0  0
    6.6435   42.5468   49.9976 C   0  0  0  0  0  0  0  0  0  0  0  0
    5.9911   45.5460   48.5064 H   0  0  0  0  0  0  0  0  0  0  0  0
    4.0999   45.4829   50.1287 H   0  0  0  0  0  0  0  0  0  0  0  0
    2.6566   43.6213   51.3426 H   0  0  0  0  0  0  0  0  0  0  0  0
    1.6013   44.8216   58.1541 H   0  0  0  0  0  0  0  0  0  0  0  0
    3.3694   46.4865   57.2832 H   0  0  0  0  0  0  0  0  0  0  0  0
    5.2666   46.9065   52.6556 H   0  0  0  0  0  0  0  0  0  0  0  0
    5.9451   48.3462   53.4740 H   0  0  0  0  0  0  0  0  0  0  0  0
    7.0214   45.7264   54.4055 H   0  0  0  0  0  0  0  0  0  0  0  0
    6.8117   45.2097   52.0164 H   0  0  0  0  0  0  0  0  0  0  0  0
    7.6614   46.7551   51.6032 H   0  0  0  0  0  0  0  0  0  0  0  0
    8.8241   44.3749   53.1173 H   0  0  0  0  0  0  0  0  0  0  0  0
    9.2200   44.9128   51.4324 H   0  0  0  0  0  0  0  0  0  0  0  0
   10.9307   45.5995   53.1197 H   0  0  0  0  0  0  0  0  0  0  0  0
   10.1470   46.9850   52.2559 H   0  0  0  0  0  0  0  0  0  0  0  0
    9.5302   45.9869   55.0718 H   0  0  0  0  0  0  0  0  0  0  0  0
   10.3444   47.5352   54.5948 H   0  0  0  0  0  0  0  0  0  0  0  0
    7.9425   47.8235   55.2289 H   0  0  0  0  0  0  0  0  0  0  0  0
    8.3340   48.3306   53.5320 H   0  0  0  0  0  0  0  0  0  0  0  0
    4.8288   45.5457   52.5901 H   0  0  0  0  0  0  0  0  0  0  0  0
    5.4680   41.6400   51.5757 H   0  0  0  0  0  0  0  0  0  0  0  0
    7.3716   41.7231   49.9611 H   0  0  0  0  0  0  0  0  0  0  0  0
  1  2  1  0
  2  3  2  0
  3  4  1  0
  4  5  2  0
  5  6  1  0
  6  7  1  0
  7  8  2  0
  8  9  1  0
  9 10  1  0
 10 11  2  0
 11 12  1  0
 12 13  1  0
 13 14  1  0
 14 15  1  0
 15 16  1  0
 16 17  1  0
 17 18  1  0
 18 19  1  0
 19 20  1  0
 20 21  1  0
 21 22  1  0
 14 23  2  0
  5 24  1  0
 24 25  2  0
 25  2  1  0
 23  7  1  0
 13  9  2  0
 22 17  1  0
  3 26  1  0
  4 27  1  0
  6 28  1  0
 11 29  1  0
 12 30  1  0
 16 31  1  0
 16 32  1  0
 17 33  1  0
 18 34  1  0
 18 35  1  0
 19 36  1  0
 19 37  1  0
 20 38  1  0
 20 39  1  0
 21 40  1  0
 21 41  1  0
 22 42  1  0
 22 43  1  0
 23 44  1  0
 24 45  1  0
 25 46  1  0
M  CHG  1  23   1
M  END
>  <meeko>  (2) 
{"is_sidechain": false}

>  <CID>  (2) 
123953120

>  <pose_index>  (2) 
2

>  <docking_score>  (2) 
-9.726

>  <rmsd_to_best_selected>  (2) 
1.1506725353185678

>  <MWT>  (2) 
342.3979999999997

>  <TPSA>  (2) 
76.97

>  <logP>  (2) 
3.613800000000002

>  <HBD>  (2) 
2

>  <HBA>  (2) 
4

>  <SMILES>  (2) 
[H]c1c([H])c(N([H])c2nc3nc([H])n([H])c3c(OC([H])([H])C3([H])C([H])([H])C([H])([H])C([H])([H])C([H])([H])C3([H])[H])[n+]2[H])c([H])c([H])c1F

$$$$
123953120_pose3
     RDKit          3D

 46 49  0  0  0  0  0  0  0  0999 V2000
    7.9091   44.0939   48.3341 F   0  0  0  0  0  0  0  0  0  0  0  0
    6.9005   43.9391   49.1982 C   0  0  0  0  0  0  0  0  0  0  0  0
    5.8011   44.7841   49.1294 C   0  0  0  0  0  0  0  0  0  0  0  0
    4.7546   44.6216   50.0362 C   0  0  0  0  0  0  0  0  0  0  0  0
    4.7915   43.6047   51.0041 C   0  0  0  0  0  0  0  0  0  0  0  0
    3.7066   43.4907   51.8895 N   0  0  0  0  0  0  0  0  0  0  0  0
    3.4385   44.2024   53.0619 C   0  0  0  0  0  0  0  0  0  0  0  0
    2.2989   43.9296   53.7114 N   0  0  0  0  0  0  0  0  0  0  0  0
    2.1285   44.6386   54.8419 C   0  0  0  0  0  0  0  0  0  0  0  0
    1.0493   44.5715   55.6662 N   0  0  0  0  0  0  0  0  0  0  0  0
    1.3001   45.4247   56.6395 C   0  0  0  0  0  0  0  0  0  0  0  0
    2.5071   46.0505   56.4661 N   0  0  0  0  0  0  0  0  0  0  0  0
    3.0648   45.5400   55.3217 C   0  0  0  0  0  0  0  0  0  0  0  0
    4.2461   45.7293   54.6381 C   0  0  0  0  0  0  0  0  0  0  0  0
    5.1935   46.6334   55.0379 O   0  0  0  0  0  0  0  0  0  0  0  0
    6.4824   45.9989   55.1438 C   0  0  0  0  0  0  0  0  0  0  0  0
    7.2998   46.3388   53.8866 C   0  0  0  0  0  0  0  0  0  0  0  0
    8.4470   47.3005   54.2251 C   0  0  0  0  0  0  0  0  0  0  0  0
    9.2773   47.6360   52.9886 C   0  0  0  0  0  0  0  0  0  0  0  0
    9.8061   46.3780   52.3075 C   0  0  0  0  0  0  0  0  0  0  0  0
    8.6760   45.4098   51.9686 C   0  0  0  0  0  0  0  0  0  0  0  0
    7.8335   45.0727   53.1965 C   0  0  0  0  0  0  0  0  0  0  0  0
    4.3703   45.0519   53.5004 N   0  0  0  0  0  4  0  0  0  0  0  0
    5.9177   42.7674   51.0617 C   0  0  0  0  0  0  0  0  0  0  0  0
    6.9698   42.9352   50.1564 C   0  0  0  0  0  0  0  0  0  0  0  0
    5.7561   45.5748   48.3661 H   0  0  0  0  0  0  0  0  0  0  0  0
    3.8888   45.2988   49.9930 H   0  0  0  0  0  0  0  0  0  0  0  0
    2.8271   43.3060   51.3972 H   0  0  0  0  0  0  0  0  0  0  0  0
    0.6238   45.6114   57.4866 H   0  0  0  0  0  0  0  0  0  0  0  0
    2.9096   46.7399   57.0915 H   0  0  0  0  0  0  0  0  0  0  0  0
    7.0057   46.3692   56.0377 H   0  0  0  0  0  0  0  0  0  0  0  0
    6.3596   44.9091   55.2296 H   0  0  0  0  0  0  0  0  0  0  0  0
    6.6236   46.8407   53.1788 H   0  0  0  0  0  0  0  0  0  0  0  0
    8.0254   48.2298   54.6358 H   0  0  0  0  0  0  0  0  0  0  0  0
    9.1032   46.8109   54.9597 H   0  0  0  0  0  0  0  0  0  0  0  0
    8.6483   48.1899   52.2761 H   0  0  0  0  0  0  0  0  0  0  0  0
   10.1383   48.2419   53.3071 H   0  0  0  0  0  0  0  0  0  0  0  0
   10.3224   46.6640   51.3793 H   0  0  0  0  0  0  0  0  0  0  0  0
   10.4967   45.8744   52.9999 H   0  0  0  0  0  0  0  0  0  0  0  0
    8.0287   45.8699   51.2075 H   0  0  0  0  0  0  0  0  0  0  0  0
    9.1241   44.4776   51.5939 H   0  0  0  0  0  0  0  0  0  0  0  0
    6.9814   44.4511   52.8841 H   0  0  0  0  0  0  0  0  0  0  0  0
    8.4722   44.5356   53.9130 H   0  0  0  0  0  0  0  0  0  0  0  0
    5.2064   45.1571   52.9374 H   0  0  0  0  0  0  0  0  0  0  0  0
    5.9722   41.9754   51.8231 H   0  0  0  0  0  0  0  0  0  0  0  0
    7.8487   42.2753   50.2025 H   0  0  0  0  0  0  0  0  0  0  0  0
  1  2  1  0
  2  3  2  0
  3  4  1  0
  4  5  2  0
  5  6  1  0
  6  7  1  0
  7  8  2  0
  8  9  1  0
  9 10  1  0
 10 11  2  0
 11 12  1  0
 12 13  1  0
 13 14  1  0
 14 15  1  0
 15 16  1  0
 16 17  1  0
 17 18  1  0
 18 19  1  0
 19 20  1  0
 20 21  1  0
 21 22  1  0
 14 23  2  0
  5 24  1  0
 24 25  2  0
 25  2  1  0
 23  7  1  0
 13  9  2  0
 22 17  1  0
  3 26  1  0
  4 27  1  0
  6 28  1  0
 11 29  1  0
 12 30  1  0
 16 31  1  0
 16 32  1  0
 17 33  1  0
 18 34  1  0
 18 35  1  0
 19 36  1  0
 19 37  1  0
 20 38  1  0
 20 39  1  0
 21 40  1  0
 21 41  1  0
 22 42  1  0
 22 43  1  0
 23 44  1  0
 24 45  1  0
 25 46  1  0
M  CHG  1  23   1
M  END
>  <meeko>  (3) 
{"is_sidechain": false}

>  <CID>  (3) 
123953120

>  <pose_index>  (3) 
3

>  <docking_score>  (3) 
-9.55

>  <rmsd_to_best_selected>  (3) 
1.412515301708746

>  <MWT>  (3) 
342.3979999999997

>  <TPSA>  (3) 
76.97

>  <logP>  (3) 
3.613800000000002

>  <HBD>  (3) 
2

>  <HBA>  (3) 
4

>  <SMILES>  (3) 
[H]c1c([H])c(N([H])c2nc3nc([H])n([H])c3c(OC([H])([H])C3([H])C([H])([H])C([H])([H])C([H])([H])C([H])([H])C3([H])[H])[n+]2[H])c([H])c([H])c1F

$$$$
123953120_pose5
     RDKit          3D

 46 49  0  0  0  0  0  0  0  0999 V2000
    7.0533   41.9002   48.4226 F   0  0  0  0  0  0  0  0  0  0  0  0
    6.2351   42.6549   49.1640 C   0  0  0  0  0  0  0  0  0  0  0  0
    4.8923   42.3171   49.2633 C   0  0  0  0  0  0  0  0  0  0  0  0
    4.0419   43.1097   50.0349 C   0  0  0  0  0  0  0  0  0  0  0  0
    4.5311   44.2306   50.7228 C   0  0  0  0  0  0  0  0  0  0  0  0
    3.6259   44.9904   51.4836 N   0  0  0  0  0  0  0  0  0  0  0  0
    3.5908   45.2099   52.8634 C   0  0  0  0  0  0  0  0  0  0  0  0
    2.3907   45.2868   53.4549 N   0  0  0  0  0  0  0  0  0  0  0  0
    2.4453   45.4735   54.7852 C   0  0  0  0  0  0  0  0  0  0  0  0
    1.3751   45.6114   55.6118 N   0  0  0  0  0  0  0  0  0  0  0  0
    1.8832   45.7720   56.8176 C   0  0  0  0  0  0  0  0  0  0  0  0
    3.2539   45.7507   56.7967 N   0  0  0  0  0  0  0  0  0  0  0  0
    3.6327   45.5380   55.4955 C   0  0  0  0  0  0  0  0  0  0  0  0
    4.8336   45.3904   54.8358 C   0  0  0  0  0  0  0  0  0  0  0  0
    6.0420   45.4837   55.4742 O   0  0  0  0  0  0  0  0  0  0  0  0
    6.6100   46.7936   55.2883 C   0  0  0  0  0  0  0  0  0  0  0  0
    7.8162   46.6749   54.3405 C   0  0  0  0  0  0  0  0  0  0  0  0
    8.3710   45.2446   54.3414 C   0  0  0  0  0  0  0  0  0  0  0  0
    9.5607   45.1069   53.3938 C   0  0  0  0  0  0  0  0  0  0  0  0
    9.2074   45.5519   51.9786 C   0  0  0  0  0  0  0  0  0  0  0  0
    8.6484   46.9718   51.9625 C   0  0  0  0  0  0  0  0  0  0  0  0
    7.4622   47.1223   52.9127 C   0  0  0  0  0  0  0  0  0  0  0  0
    4.7556   45.2533   53.5155 N   0  0  0  0  0  4  0  0  0  0  0  0
    5.8915   44.5603   50.6003 C   0  0  0  0  0  0  0  0  0  0  0  0
    6.7413   43.7694   49.8219 C   0  0  0  0  0  0  0  0  0  0  0  0
    4.5022   41.4326   48.7383 H   0  0  0  0  0  0  0  0  0  0  0  0
    2.9747   42.8527   50.1049 H   0  0  0  0  0  0  0  0  0  0  0  0
    3.3375   45.8453   50.9982 H   0  0  0  0  0  0  0  0  0  0  0  0
    1.2814   45.9066   57.7285 H   0  0  0  0  0  0  0  0  0  0  0  0
    3.8586   45.8482   57.6045 H   0  0  0  0  0  0  0  0  0  0  0  0
    5.8576   47.4649   54.8486 H   0  0  0  0  0  0  0  0  0  0  0  0
    6.9315   47.2049   56.2566 H   0  0  0  0  0  0  0  0  0  0  0  0
    8.5987   47.3515   54.7146 H   0  0  0  0  0  0  0  0  0  0  0  0
    8.6938   44.9867   55.3609 H   0  0  0  0  0  0  0  0  0  0  0  0
    7.5762   44.5652   53.9997 H   0  0  0  0  0  0  0  0  0  0  0  0
   10.3879   45.7284   53.7672 H   0  0  0  0  0  0  0  0  0  0  0  0
    9.8504   44.0463   53.3581 H   0  0  0  0  0  0  0  0  0  0  0  0
   10.1137   45.5174   51.3563 H   0  0  0  0  0  0  0  0  0  0  0  0
    8.4365   44.8728   51.5854 H   0  0  0  0  0  0  0  0  0  0  0  0
    9.4410   47.6705   52.2682 H   0  0  0  0  0  0  0  0  0  0  0  0
    8.3009   47.1920   50.9424 H   0  0  0  0  0  0  0  0  0  0  0  0
    7.1559   48.1786   52.9358 H   0  0  0  0  0  0  0  0  0  0  0  0
    6.6459   46.4829   52.5457 H   0  0  0  0  0  0  0  0  0  0  0  0
    5.6008   45.1576   52.9657 H   0  0  0  0  0  0  0  0  0  0  0  0
    6.2895   45.4448   51.1193 H   0  0  0  0  0  0  0  0  0  0  0  0
    7.8065   44.0280   49.7304 H   0  0  0  0  0  0  0  0  0  0  0  0
  1  2  1  0
  2  3  2  0
  3  4  1  0
  4  5  2  0
  5  6  1  0
  6  7  1  0
  7  8  2  0
  8  9  1  0
  9 10  1  0
 10 11  2  0
 11 12  1  0
 12 13  1  0
 13 14  1  0
 14 15  1  0
 15 16  1  0
 16 17  1  0
 17 18  1  0
 18 19  1  0
 19 20  1  0
 20 21  1  0
 21 22  1  0
 14 23  2  0
  5 24  1  0
 24 25  2  0
 25  2  1  0
 23  7  1  0
 13  9  2  0
 22 17  1  0
  3 26  1  0
  4 27  1  0
  6 28  1  0
 11 29  1  0
 12 30  1  0
 16 31  1  0
 16 32  1  0
 17 33  1  0
 18 34  1  0
 18 35  1  0
 19 36  1  0
 19 37  1  0
 20 38  1  0
 20 39  1  0
 21 40  1  0
 21 41  1  0
 22 42  1  0
 22 43  1  0
 23 44  1  0
 24 45  1  0
 25 46  1  0
M  CHG  1  23   1
M  END
>  <meeko>  (4) 
{"is_sidechain": false}

>  <CID>  (4) 
123953120

>  <pose_index>  (4) 
5

>  <docking_score>  (4) 
-9.154

>  <rmsd_to_best_selected>  (4) 
1.274123361795796

>  <MWT>  (4) 
342.3979999999997

>  <TPSA>  (4) 
76.97

>  <logP>  (4) 
3.613800000000002

>  <HBD>  (4) 
2

>  <HBA>  (4) 
4

>  <SMILES>  (4) 
[H]c1c([H])c(N([H])c2nc3nc([H])n([H])c3c(OC([H])([H])C3([H])C([H])([H])C([H])([H])C([H])([H])C([H])([H])C3([H])[H])[n+]2[H])c([H])c([H])c1F

$$$$
123953120_pose9
     RDKit          3D

 46 49  0  0  0  0  0  0  0  0999 V2000
    5.9961   44.6122   47.3274 F   0  0  0  0  0  0  0  0  0  0  0  0
    5.4312   44.3818   48.5166 C   0  0  0  0  0  0  0  0  0  0  0  0
    6.0631   44.8178   49.6736 C   0  0  0  0  0  0  0  0  0  0  0  0
    5.4720   44.5695   50.9127 C   0  0  0  0  0  0  0  0  0  0  0  0
    4.2399   43.9025   51.0012 C   0  0  0  0  0  0  0  0  0  0  0  0
    3.6948   43.6828   52.2776 N   0  0  0  0  0  0  0  0  0  0  0  0
    3.7712   44.4773   53.4250 C   0  0  0  0  0  0  0  0  0  0  0  0
    2.6359   45.0171   53.8884 N   0  0  0  0  0  0  0  0  0  0  0  0
    2.7917   45.7459   55.0083 C   0  0  0  0  0  0  0  0  0  0  0  0
    1.8073   46.4178   55.6612 N   0  0  0  0  0  0  0  0  0  0  0  0
    2.3981   46.9865   56.6932 C   0  0  0  0  0  0  0  0  0  0  0  0
    3.7401   46.7093   56.7254 N   0  0  0  0  0  0  0  0  0  0  0  0
    4.0081   45.8925   55.6556 C   0  0  0  0  0  0  0  0  0  0  0  0
    5.1272   45.2596   55.1620 C   0  0  0  0  0  0  0  0  0  0  0  0
    6.3650   45.3971   55.7318 O   0  0  0  0  0  0  0  0  0  0  0  0
    6.9824   46.6252   55.3053 C   0  0  0  0  0  0  0  0  0  0  0  0
    8.0838   46.2907   54.2850 C   0  0  0  0  0  0  0  0  0  0  0  0
    8.3861   44.7861   54.2822 C   0  0  0  0  0  0  0  0  0  0  0  0
    9.4688   44.4359   53.2643 C   0  0  0  0  0  0  0  0  0  0  0  0
    9.1018   44.9193   51.8644 C   0  0  0  0  0  0  0  0  0  0  0  0
    8.7935   46.4140   51.8533 C   0  0  0  0  0  0  0  0  0  0  0  0
    7.7177   46.7769   52.8740 C   0  0  0  0  0  0  0  0  0  0  0  0
    4.9579   44.5838   54.0286 N   0  0  0  0  0  4  0  0  0  0  0  0
    3.6229   43.4611   49.8187 C   0  0  0  0  0  0  0  0  0  0  0  0
    4.2191   43.7041   48.5787 C   0  0  0  0  0  0  0  0  0  0  0  0
    7.0214   45.3545   49.6137 H   0  0  0  0  0  0  0  0  0  0  0  0
    5.9777   44.9005   51.8318 H   0  0  0  0  0  0  0  0  0  0  0  0
    2.7684   43.2472   52.2296 H   0  0  0  0  0  0  0  0  0  0  0  0
    1.8779   47.6075   57.4373 H   0  0  0  0  0  0  0  0  0  0  0  0
    4.3940   47.0341   57.4293 H   0  0  0  0  0  0  0  0  0  0  0  0
    6.2290   47.2761   54.8376 H   0  0  0  0  0  0  0  0  0  0  0  0
    7.4168   47.1482   56.1700 H   0  0  0  0  0  0  0  0  0  0  0  0
    8.9934   46.8271   54.5932 H   0  0  0  0  0  0  0  0  0  0  0  0
    8.7277   44.4882   55.2845 H   0  0  0  0  0  0  0  0  0  0  0  0
    7.4663   44.2494   54.0069 H   0  0  0  0  0  0  0  0  0  0  0  0
   10.4129   44.9107   53.5697 H   0  0  0  0  0  0  0  0  0  0  0  0
    9.5712   43.3410   53.2342 H   0  0  0  0  0  0  0  0  0  0  0  0
    9.9449   44.7229   51.1857 H   0  0  0  0  0  0  0  0  0  0  0  0
    8.2019   44.3782   51.5366 H   0  0  0  0  0  0  0  0  0  0  0  0
    9.7127   46.9692   52.0917 H   0  0  0  0  0  0  0  0  0  0  0  0
    8.4204   46.6795   50.8531 H   0  0  0  0  0  0  0  0  0  0  0  0
    7.5994   47.8703   52.8934 H   0  0  0  0  0  0  0  0  0  0  0  0
    6.7812   46.2836   52.5743 H   0  0  0  0  0  0  0  0  0  0  0  0
    5.7425   44.1093   53.6001 H   0  0  0  0  0  0  0  0  0  0  0  0
    2.6656   42.9215   49.8693 H   0  0  0  0  0  0  0  0  0  0  0  0
    3.7311   43.3603   47.6548 H   0  0  0  0  0  0  0  0  0  0  0  0
  1  2  1  0
  2  3  2  0
  3  4  1  0
  4  5  2  0
  5  6  1  0
  6  7  1  0
  7  8  2  0
  8  9  1  0
  9 10  1  0
 10 11  2  0
 11 12  1  0
 12 13  1  0
 13 14  1  0
 14 15  1  0
 15 16  1  0
 16 17  1  0
 17 18  1  0
 18 19  1  0
 19 20  1  0
 20 21  1  0
 21 22  1  0
 14 23  2  0
  5 24  1  0
 24 25  2  0
 25  2  1  0
 23  7  1  0
 13  9  2  0
 22 17  1  0
  3 26  1  0
  4 27  1  0
  6 28  1  0
 11 29  1  0
 12 30  1  0
 16 31  1  0
 16 32  1  0
 17 33  1  0
 18 34  1  0
 18 35  1  0
 19 36  1  0
 19 37  1  0
 20 38  1  0
 20 39  1  0
 21 40  1  0
 21 41  1  0
 22 42  1  0
 22 43  1  0
 23 44  1  0
 24 45  1  0
 25 46  1  0
M  CHG  1  23   1
M  END
>  <meeko>  (5) 
{"is_sidechain": false}

>  <CID>  (5) 
123953120

>  <pose_index>  (5) 
9

>  <docking_score>  (5) 
-9.035

>  <rmsd_to_best_selected>  (5) 
1.2233423494101807

>  <MWT>  (5) 
342.3979999999997

>  <TPSA>  (5) 
76.97

>  <logP>  (5) 
3.613800000000002

>  <HBD>  (5) 
2

>  <HBA>  (5) 
4

>  <SMILES>  (5) 
[H]c1c([H])c(N([H])c2nc3nc([H])n([H])c3c(OC([H])([H])C3([H])C([H])([H])C([H])([H])C([H])([H])C([H])([H])C3([H])[H])[n+]2[H])c([H])c([H])c1F

$$$$
