49863196_pose1
     RDKit          3D

 42 45  0  0  0  0  0  0  0  0999 V2000
    6.5100   42.6120   48.8670 C   0  0  0  0  0  0  0  0  0  0  0  0
    5.7810   41.4560   48.6510 C   0  0  0  0  0  0  0  0  0  0  0  0
    4.7540   41.0640   49.4330 N   0  0  0  0  0  0  0  0  0  0  0  0
    4.4450   41.8690   50.4800 C   0  0  0  0  0  0  0  0  0  0  0  0
    5.1090   43.0530   50.7940 C   0  0  0  0  0  0  0  0  0  0  0  0
    4.7530   43.9040   51.9310 C   0  0  0  0  0  0  0  0  0  0  0  0
    3.7400   43.6940   52.7610 N   0  0  0  0  0  0  0  0  0  0  0  0
    3.7700   44.7180   53.6660 C   0  0  0  0  0  0  0  0  0  0  0  0
    2.9140   44.8920   54.6890 N   0  0  0  0  0  0  0  0  0  0  0  0
    3.1900   45.9880   55.4110 C   0  0  0  0  0  0  0  0  0  0  0  0
    4.1840   46.8820   55.2250 N   0  0  0  0  0  0  0  0  0  0  0  0
    5.0220   46.6770   54.1910 C   0  0  0  0  0  0  0  0  0  0  0  0
    6.0650   47.5340   53.9220 O   0  0  0  0  0  0  0  0  0  0  0  0
    7.2810   47.1630   54.5740 C   0  0  0  0  0  0  0  0  0  0  0  0
    8.4780   47.4880   53.6620 C   0  0  0  0  0  0  0  0  0  0  0  0
    9.5360   46.3690   53.7220 C   0  0  0  0  0  0  0  0  0  0  0  0
   10.4870   46.4420   52.5340 C   0  0  0  0  0  0  0  0  0  0  0  0
    9.7550   46.2390   51.2070 C   0  0  0  0  0  0  0  0  0  0  0  0
    8.2810   46.6420   51.2560 C   0  0  0  0  0  0  0  0  0  0  0  0
    8.0370   47.8010   52.2160 C   0  0  0  0  0  0  0  0  0  0  0  0
    4.8120   45.5760   53.3980 C   0  0  0  0  0  0  0  0  0  0  0  0
    5.4270   45.0520   52.2990 N   0  0  0  0  0  0  0  0  0  0  0  0
    6.1660   43.4160   49.9520 C   0  0  0  0  0  0  0  0  0  0  0  0
    7.3394   42.8891   48.1997 H   0  0  0  0  0  0  0  0  0  0  0  0
    6.0538   40.8218   47.7946 H   0  0  0  0  0  0  0  0  0  0  0  0
    3.6098   41.5651   51.1281 H   0  0  0  0  0  0  0  0  0  0  0  0
    2.5217   46.1831   56.2626 H   0  0  0  0  0  0  0  0  0  0  0  0
    7.3764   47.7227   55.5161 H   0  0  0  0  0  0  0  0  0  0  0  0
    7.2665   46.0837   54.7858 H   0  0  0  0  0  0  0  0  0  0  0  0
    8.9488   48.4060   54.0436 H   0  0  0  0  0  0  0  0  0  0  0  0
   10.1151   46.4729   54.6514 H   0  0  0  0  0  0  0  0  0  0  0  0
    9.0177   45.3992   53.6927 H   0  0  0  0  0  0  0  0  0  0  0  0
   10.9714   47.4296   52.5259 H   0  0  0  0  0  0  0  0  0  0  0  0
   11.2300   45.6379   52.6410 H   0  0  0  0  0  0  0  0  0  0  0  0
   10.2560   46.8439   50.4369 H   0  0  0  0  0  0  0  0  0  0  0  0
    9.7890   45.1632   50.9799 H   0  0  0  0  0  0  0  0  0  0  0  0
    7.9615   46.9431   50.2474 H   0  0  0  0  0  0  0  0  0  0  0  0
    7.7041   45.7768   51.6146 H   0  0  0  0  0  0  0  0  0  0  0  0
    8.5997   48.6763   51.8594 H   0  0  0  0  0  0  0  0  0  0  0  0
    6.9536   47.9903   52.2355 H   0  0  0  0  0  0  0  0  0  0  0  0
    6.2370   45.4500   51.8450 H   0  0  0  0  0  0  0  0  0  0  0  0
    6.7284   44.3409   50.1476 H   0  0  0  0  0  0  0  0  0  0  0  0
  1  2  2  0
  2  3  1  0
  3  4  2  0
  4  5  1  0
  5  6  1  0
  6  7  2  0
  7  8  1  0
  8  9  2  0
  9 10  1  0
 10 11  2  0
 11 12  1  0
 12 13  1  0
 13 14  1  0
 14 15  1  0
 15 16  1  0
 16 17  1  0
 17 18  1  0
 18 19  1  0
 19 20  1  0
 12 21  2  0
 21 22  1  0
  5 23  2  0
 23  1  1  0
 22  6  1  0
 21  8  1  0
 20 15  1  0
  1 24  1  0
  2 25  1  0
  4 26  1  0
 10 27  1  0
 14 28  1  0
 14 29  1  0
 15 30  1  0
 16 31  1  0
 16 32  1  0
 17 33  1  0
 17 34  1  0
 18 35  1  0
 18 36  1  0
 19 37  1  0
 19 38  1  0
 20 39  1  0
 20 40  1  0
 22 41  1  0
 23 42  1  0
M  END
>  <meeko>  (1) 
{"is_sidechain": false}

>  <CID>  (1) 
49863196

>  <pose_index>  (1) 
1

>  <docking_score>  (1) 
-9.156

>  <rmsd_to_best_selected>  (1) 
0.0

>  <MWT>  (1) 
309.37299999999965

>  <TPSA>  (1) 
76.58000000000001

>  <logP>  (1) 
3.3740000000000014

>  <HBD>  (1) 
1

>  <HBA>  (1) 
5

>  <SMILES>  (1) 
[H]c1nc(OC([H])([H])C2([H])C([H])([H])C([H])([H])C([H])([H])C([H])([H])C2([H])[H])c2c(n1)nc(-c1c([H])nc([H])c([H])c1[H])n2[H]

$$$$
49863196_pose4
     RDKit          3D

 42 45  0  0  0  0  0  0  0  0999 V2000
    6.4908   42.1132   49.2685 C   0  0  0  0  0  0  0  0  0  0  0  0
    5.4790   41.3912   48.6616 C   0  0  0  0  0  0  0  0  0  0  0  0
    4.1808   41.4729   49.0254 N   0  0  0  0  0  0  0  0  0  0  0  0
    3.8878   42.3179   50.0450 C   0  0  0  0  0  0  0  0  0  0  0  0
    4.8236   43.0925   50.7281 C   0  0  0  0  0  0  0  0  0  0  0  0
    4.4784   43.9975   51.8263 C   0  0  0  0  0  0  0  0  0  0  0  0
    3.2525   44.3972   52.1366 N   0  0  0  0  0  0  0  0  0  0  0  0
    3.3830   45.2269   53.2147 C   0  0  0  0  0  0  0  0  0  0  0  0
    2.3797   45.8554   53.8530 N   0  0  0  0  0  0  0  0  0  0  0  0
    2.8109   46.6065   54.8768 C   0  0  0  0  0  0  0  0  0  0  0  0
    4.0784   46.7849   55.3067 N   0  0  0  0  0  0  0  0  0  0  0  0
    5.0570   46.1410   54.6443 C   0  0  0  0  0  0  0  0  0  0  0  0
    6.3794   46.2603   55.0086 O   0  0  0  0  0  0  0  0  0  0  0  0
    7.1160   47.1517   54.1676 C   0  0  0  0  0  0  0  0  0  0  0  0
    8.2171   46.3719   53.4264 C   0  0  0  0  0  0  0  0  0  0  0  0
    8.1179   46.5938   51.9041 C   0  0  0  0  0  0  0  0  0  0  0  0
    9.4156   46.2137   51.2033 C   0  0  0  0  0  0  0  0  0  0  0  0
   10.5860   47.0839   51.6665 C   0  0  0  0  0  0  0  0  0  0  0  0
   10.4099   47.6426   53.0782 C   0  0  0  0  0  0  0  0  0  0  0  0
    9.6242   46.6922   53.9747 C   0  0  0  0  0  0  0  0  0  0  0  0
    4.7045   45.3474   53.5799 C   0  0  0  0  0  0  0  0  0  0  0  0
    5.3883   44.5668   52.6961 N   0  0  0  0  0  0  0  0  0  0  0  0
    6.1537   42.9724   50.3131 C   0  0  0  0  0  0  0  0  0  0  0  0
    7.5343   42.0120   48.9354 H   0  0  0  0  0  0  0  0  0  0  0  0
    5.7462   40.7134   47.8375 H   0  0  0  0  0  0  0  0  0  0  0  0
    2.8354   42.3976   50.3552 H   0  0  0  0  0  0  0  0  0  0  0  0
    2.0333   47.1458   55.4376 H   0  0  0  0  0  0  0  0  0  0  0  0
    6.4354   47.6096   53.4347 H   0  0  0  0  0  0  0  0  0  0  0  0
    7.5770   47.9376   54.7838 H   0  0  0  0  0  0  0  0  0  0  0  0
    8.0525   45.3008   53.6148 H   0  0  0  0  0  0  0  0  0  0  0  0
    7.3006   45.9756   51.5045 H   0  0  0  0  0  0  0  0  0  0  0  0
    7.9244   47.6610   51.7209 H   0  0  0  0  0  0  0  0  0  0  0  0
    9.6449   45.1609   51.4246 H   0  0  0  0  0  0  0  0  0  0  0  0
    9.2796   46.3694   50.1229 H   0  0  0  0  0  0  0  0  0  0  0  0
   11.5021   46.4753   51.6448 H   0  0  0  0  0  0  0  0  0  0  0  0
   10.6399   47.9439   50.9828 H   0  0  0  0  0  0  0  0  0  0  0  0
   11.4030   47.8088   53.5208 H   0  0  0  0  0  0  0  0  0  0  0  0
    9.8451   48.5835   53.0031 H   0  0  0  0  0  0  0  0  0  0  0  0
   10.1870   45.7516   54.0671 H   0  0  0  0  0  0  0  0  0  0  0  0
    9.4936   47.1892   54.9473 H   0  0  0  0  0  0  0  0  0  0  0  0
    6.3898   44.4380   52.6923 H   0  0  0  0  0  0  0  0  0  0  0  0
    6.9381   43.5591   50.8136 H   0  0  0  0  0  0  0  0  0  0  0  0
  1  2  2  0
  2  3  1  0
  3  4  2  0
  4  5  1  0
  5  6  1  0
  6  7  2  0
  7  8  1  0
  8  9  2  0
  9 10  1  0
 10 11  2  0
 11 12  1  0
 12 13  1  0
 13 14  1  0
 14 15  1  0
 15 16  1  0
 16 17  1  0
 17 18  1  0
 18 19  1  0
 19 20  1  0
 12 21  2  0
 21 22  1  0
  5 23  2  0
 23  1  1  0
 22  6  1  0
 21  8  1  0
 20 15  1  0
  1 24  1  0
  2 25  1  0
  4 26  1  0
 10 27  1  0
 14 28  1  0
 14 29  1  0
 15 30  1  0
 16 31  1  0
 16 32  1  0
 17 33  1  0
 17 34  1  0
 18 35  1  0
 18 36  1  0
 19 37  1  0
 19 38  1  0
 20 39  1  0
 20 40  1  0
 22 41  1  0
 23 42  1  0
M  END
>  <meeko>  (2) 
{"is_sidechain": false}

>  <CID>  (2) 
49863196

>  <pose_index>  (2) 
4

>  <docking_score>  (2) 
-8.404

>  <rmsd_to_best_selected>  (2) 
1.2731589491776922

>  <MWT>  (2) 
309.37299999999965

>  <TPSA>  (2) 
76.58000000000001

>  <logP>  (2) 
3.3740000000000014

>  <HBD>  (2) 
1

>  <HBA>  (2) 
5

>  <SMILES>  (2) 
[H]c1nc(OC([H])([H])C2([H])C([H])([H])C([H])([H])C([H])([H])C([H])([H])C2([H])[H])c2c(n1)nc(-c1c([H])nc([H])c([H])c1[H])n2[H]

$$$$
49863196_pose5
     RDKit          3D

 42 45  0  0  0  0  0  0  0  0999 V2000
    5.2828   41.4057   49.0613 C   0  0  0  0  0  0  0  0  0  0  0  0
    6.6269   41.4584   48.7391 C   0  0  0  0  0  0  0  0  0  0  0  0
    7.5100   42.2758   49.3504 N   0  0  0  0  0  0  0  0  0  0  0  0
    7.0205   43.0752   50.3308 C   0  0  0  0  0  0  0  0  0  0  0  0
    5.6885   43.1065   50.7387 C   0  0  0  0  0  0  0  0  0  0  0  0
    5.1869   43.9807   51.8010 C   0  0  0  0  0  0  0  0  0  0  0  0
    3.9084   44.2176   52.0613 N   0  0  0  0  0  0  0  0  0  0  0  0
    3.8886   45.0814   53.1209 C   0  0  0  0  0  0  0  0  0  0  0  0
    2.7888   45.5819   53.7100 N   0  0  0  0  0  0  0  0  0  0  0  0
    3.0779   46.4067   54.7281 C   0  0  0  0  0  0  0  0  0  0  0  0
    4.2944   46.7630   55.1927 N   0  0  0  0  0  0  0  0  0  0  0  0
    5.3737   46.2423   54.5784 C   0  0  0  0  0  0  0  0  0  0  0  0
    6.6542   46.5474   54.9812 O   0  0  0  0  0  0  0  0  0  0  0  0
    7.0959   47.8297   54.5284 C   0  0  0  0  0  0  0  0  0  0  0  0
    8.3821   47.6695   53.6978 C   0  0  0  0  0  0  0  0  0  0  0  0
    8.9686   46.2522   53.8580 C   0  0  0  0  0  0  0  0  0  0  0  0
    9.9524   45.9287   52.7416 C   0  0  0  0  0  0  0  0  0  0  0  0
    9.2754   45.9357   51.3696 C   0  0  0  0  0  0  0  0  0  0  0  0
    8.0407   46.8346   51.3026 C   0  0  0  0  0  0  0  0  0  0  0  0
    8.1675   48.0489   52.2165 C   0  0  0  0  0  0  0  0  0  0  0  0
    5.1680   45.3870   53.5244 C   0  0  0  0  0  0  0  0  0  0  0  0
    5.9812   44.6864   52.6833 N   0  0  0  0  0  0  0  0  0  0  0  0
    4.8134   42.2411   50.0730 C   0  0  0  0  0  0  0  0  0  0  0  0
    4.6021   40.7221   48.5326 H   0  0  0  0  0  0  0  0  0  0  0  0
    6.9964   40.7978   47.9409 H   0  0  0  0  0  0  0  0  0  0  0  0
    7.7262   43.7475   50.8408 H   0  0  0  0  0  0  0  0  0  0  0  0
    2.2157   46.8478   55.2495 H   0  0  0  0  0  0  0  0  0  0  0  0
    6.3130   48.2878   53.9062 H   0  0  0  0  0  0  0  0  0  0  0  0
    7.2998   48.4734   55.3968 H   0  0  0  0  0  0  0  0  0  0  0  0
    9.1236   48.3799   54.0920 H   0  0  0  0  0  0  0  0  0  0  0  0
    9.4900   46.1878   54.8244 H   0  0  0  0  0  0  0  0  0  0  0  0
    8.1419   45.5280   53.8116 H   0  0  0  0  0  0  0  0  0  0  0  0
   10.7560   46.6799   52.7462 H   0  0  0  0  0  0  0  0  0  0  0  0
   10.3537   44.9202   52.9204 H   0  0  0  0  0  0  0  0  0  0  0  0
   10.0034   46.2882   50.6241 H   0  0  0  0  0  0  0  0  0  0  0  0
    8.9381   44.9078   51.1704 H   0  0  0  0  0  0  0  0  0  0  0  0
    7.9100   47.1816   50.2670 H   0  0  0  0  0  0  0  0  0  0  0  0
    7.1738   46.2463   51.6377 H   0  0  0  0  0  0  0  0  0  0  0  0
    9.0244   48.6519   51.8814 H   0  0  0  0  0  0  0  0  0  0  0  0
    7.2223   48.6081   52.1536 H   0  0  0  0  0  0  0  0  0  0  0  0
    6.9906   44.6939   52.7147 H   0  0  0  0  0  0  0  0  0  0  0  0
    3.7490   42.2202   50.3498 H   0  0  0  0  0  0  0  0  0  0  0  0
  1  2  2  0
  2  3  1  0
  3  4  2  0
  4  5  1  0
  5  6  1  0
  6  7  2  0
  7  8  1  0
  8  9  2  0
  9 10  1  0
 10 11  2  0
 11 12  1  0
 12 13  1  0
 13 14  1  0
 14 15  1  0
 15 16  1  0
 16 17  1  0
 17 18  1  0
 18 19  1  0
 19 20  1  0
 12 21  2  0
 21 22  1  0
  5 23  2  0
 23  1  1  0
 22  6  1  0
 21  8  1  0
 20 15  1  0
  1 24  1  0
  2 25  1  0
  4 26  1  0
 10 27  1  0
 14 28  1  0
 14 29  1  0
 15 30  1  0
 16 31  1  0
 16 32  1  0
 17 33  1  0
 17 34  1  0
 18 35  1  0
 18 36  1  0
 19 37  1  0
 19 38  1  0
 20 39  1  0
 20 40  1  0
 22 41  1  0
 23 42  1  0
M  END
>  <meeko>  (3) 
{"is_sidechain": false}

>  <CID>  (3) 
49863196

>  <pose_index>  (3) 
5

>  <docking_score>  (3) 
-8.208

>  <rmsd_to_best_selected>  (3) 
1.5032989011149074

>  <MWT>  (3) 
309.37299999999965

>  <TPSA>  (3) 
76.58000000000001

>  <logP>  (3) 
3.3740000000000014

>  <HBD>  (3) 
1

>  <HBA>  (3) 
5

>  <SMILES>  (3) 
[H]c1nc(OC([H])([H])C2([H])C([H])([H])C([H])([H])C([H])([H])C([H])([H])C2([H])[H])c2c(n1)nc(-c1c([H])nc([H])c([H])c1[H])n2[H]

$$$$
49863196_pose7
     RDKit          3D

 42 45  0  0  0  0  0  0  0  0999 V2000
    6.7451   42.7204   48.7518 C   0  0  0  0  0  0  0  0  0  0  0  0
    5.7010   42.0239   48.1714 C   0  0  0  0  0  0  0  0  0  0  0  0
    4.4364   42.0439   48.6448 N   0  0  0  0  0  0  0  0  0  0  0  0
    4.2123   42.7966   49.7505 C   0  0  0  0  0  0  0  0  0  0  0  0
    5.1859   43.5377   50.4164 C   0  0  0  0  0  0  0  0  0  0  0  0
    4.9161   44.3435   51.6090 C   0  0  0  0  0  0  0  0  0  0  0  0
    3.7593   44.9248   51.8972 N   0  0  0  0  0  0  0  0  0  0  0  0
    3.9435   45.5705   53.0890 C   0  0  0  0  0  0  0  0  0  0  0  0
    3.0182   46.2906   53.7474 N   0  0  0  0  0  0  0  0  0  0  0  0
    3.4873   46.8084   54.8920 C   0  0  0  0  0  0  0  0  0  0  0  0
    4.7240   46.6854   55.4190 N   0  0  0  0  0  0  0  0  0  0  0  0
    5.6247   45.9586   54.7332 C   0  0  0  0  0  0  0  0  0  0  0  0
    6.9105   45.7776   55.1903 O   0  0  0  0  0  0  0  0  0  0  0  0
    7.6869   46.9769   55.1739 C   0  0  0  0  0  0  0  0  0  0  0  0
    8.7765   46.8744   54.0914 C   0  0  0  0  0  0  0  0  0  0  0  0
    8.9643   45.4130   53.6370 C   0  0  0  0  0  0  0  0  0  0  0  0
    9.6877   45.3371   52.2997 C   0  0  0  0  0  0  0  0  0  0  0  0
    8.8888   46.0098   51.1822 C   0  0  0  0  0  0  0  0  0  0  0  0
    7.9498   47.1086   51.6813 C   0  0  0  0  0  0  0  0  0  0  0  0
    8.5087   47.8252   52.9059 C   0  0  0  0  0  0  0  0  0  0  0  0
    5.2295   45.3904   53.5465 C   0  0  0  0  0  0  0  0  0  0  0  0
    5.8343   44.6134   52.6039 N   0  0  0  0  0  0  0  0  0  0  0  0
    6.4807   43.4846   49.8866 C   0  0  0  0  0  0  0  0  0  0  0  0
    7.7591   42.6724   48.3283 H   0  0  0  0  0  0  0  0  0  0  0  0
    5.9119   41.4210   47.2758 H   0  0  0  0  0  0  0  0  0  0  0  0
    3.1879   42.8239   50.1503 H   0  0  0  0  0  0  0  0  0  0  0  0
    2.7741   47.4095   55.4752 H   0  0  0  0  0  0  0  0  0  0  0  0
    7.0324   47.8333   54.9541 H   0  0  0  0  0  0  0  0  0  0  0  0
    8.1613   47.1174   56.1564 H   0  0  0  0  0  0  0  0  0  0  0  0
    9.7246   47.2053   54.5405 H   0  0  0  0  0  0  0  0  0  0  0  0
    9.5539   44.8754   54.3942 H   0  0  0  0  0  0  0  0  0  0  0  0
    7.9706   44.9558   53.5201 H   0  0  0  0  0  0  0  0  0  0  0  0
   10.6619   45.8394   52.3930 H   0  0  0  0  0  0  0  0  0  0  0  0
    9.8133   44.2758   52.0389 H   0  0  0  0  0  0  0  0  0  0  0  0
    9.5966   46.4546   50.4673 H   0  0  0  0  0  0  0  0  0  0  0  0
    8.2619   45.2333   50.7197 H   0  0  0  0  0  0  0  0  0  0  0  0
    7.8033   47.8434   50.8759 H   0  0  0  0  0  0  0  0  0  0  0  0
    6.9980   46.6377   51.9681 H   0  0  0  0  0  0  0  0  0  0  0  0
    9.4549   48.3114   52.6260 H   0  0  0  0  0  0  0  0  0  0  0  0
    7.7532   48.5546   53.2334 H   0  0  0  0  0  0  0  0  0  0  0  0
    6.7933   44.2984   52.6431 H   0  0  0  0  0  0  0  0  0  0  0  0
    7.2930   44.0488   50.3683 H   0  0  0  0  0  0  0  0  0  0  0  0
  1  2  2  0
  2  3  1  0
  3  4  2  0
  4  5  1  0
  5  6  1  0
  6  7  2  0
  7  8  1  0
  8  9  2  0
  9 10  1  0
 10 11  2  0
 11 12  1  0
 12 13  1  0
 13 14  1  0
 14 15  1  0
 15 16  1  0
 16 17  1  0
 17 18  1  0
 18 19  1  0
 19 20  1  0
 12 21  2  0
 21 22  1  0
  5 23  2  0
 23  1  1  0
 22  6  1  0
 21  8  1  0
 20 15  1  0
  1 24  1  0
  2 25  1  0
  4 26  1  0
 10 27  1  0
 14 28  1  0
 14 29  1  0
 15 30  1  0
 16 31  1  0
 16 32  1  0
 17 33  1  0
 17 34  1  0
 18 35  1  0
 18 36  1  0
 19 37  1  0
 19 38  1  0
 20 39  1  0
 20 40  1  0
 22 41  1  0
 23 42  1  0
M  END
>  <meeko>  (4) 
{"is_sidechain": false}

>  <CID>  (4) 
49863196

>  <pose_index>  (4) 
7

>  <docking_score>  (4) 
-7.977

>  <rmsd_to_best_selected>  (4) 
0.9875211570281105

>  <MWT>  (4) 
309.37299999999965

>  <TPSA>  (4) 
76.58000000000001

>  <logP>  (4) 
3.3740000000000014

>  <HBD>  (4) 
1

>  <HBA>  (4) 
5

>  <SMILES>  (4) 
[H]c1nc(OC([H])([H])C2([H])C([H])([H])C([H])([H])C([H])([H])C([H])([H])C2([H])[H])c2c(n1)nc(-c1c([H])nc([H])c([H])c1[H])n2[H]

$$$$
49863196_pose8
     RDKit          3D

 42 45  0  0  0  0  0  0  0  0999 V2000
    6.4262   43.6742   48.4539 C   0  0  0  0  0  0  0  0  0  0  0  0
    5.8149   42.4656   48.1733 C   0  0  0  0  0  0  0  0  0  0  0  0
    4.9229   41.8704   48.9929 N   0  0  0  0  0  0  0  0  0  0  0  0
    4.6322   42.5205   50.1477 C   0  0  0  0  0  0  0  0  0  0  0  0
    5.1861   43.7383   50.5350 C   0  0  0  0  0  0  0  0  0  0  0  0
    4.8529   44.4182   51.7891 C   0  0  0  0  0  0  0  0  0  0  0  0
    3.6258   44.6852   52.2155 N   0  0  0  0  0  0  0  0  0  0  0  0
    3.7704   45.3212   53.4165 C   0  0  0  0  0  0  0  0  0  0  0  0
    2.7704   45.7709   54.1966 N   0  0  0  0  0  0  0  0  0  0  0  0
    3.2158   46.3563   55.3191 C   0  0  0  0  0  0  0  0  0  0  0  0
    4.4932   46.5289   55.7196 N   0  0  0  0  0  0  0  0  0  0  0  0
    5.4673   46.0686   54.9138 C   0  0  0  0  0  0  0  0  0  0  0  0
    6.7983   46.1990   55.2377 O   0  0  0  0  0  0  0  0  0  0  0  0
    7.4157   47.3384   54.6331 C   0  0  0  0  0  0  0  0  0  0  0  0
    8.6872   46.9014   53.8841 C   0  0  0  0  0  0  0  0  0  0  0  0
    8.7426   45.3664   53.7435 C   0  0  0  0  0  0  0  0  0  0  0  0
    9.7231   44.9457   52.6553 C   0  0  0  0  0  0  0  0  0  0  0  0
    9.3015   45.4647   51.2800 C   0  0  0  0  0  0  0  0  0  0  0  0
    8.4555   46.7372   51.3413 C   0  0  0  0  0  0  0  0  0  0  0  0
    8.8357   47.6194   52.5257 C   0  0  0  0  0  0  0  0  0  0  0  0
    5.1005   45.4533   53.7413 C   0  0  0  0  0  0  0  0  0  0  0  0
    5.7760   44.8790   52.7063 N   0  0  0  0  0  0  0  0  0  0  0  0
    6.1039   44.3139   49.6501 C   0  0  0  0  0  0  0  0  0  0  0  0
    7.1473   44.1187   47.7522 H   0  0  0  0  0  0  0  0  0  0  0  0
    6.0699   41.9614   47.2295 H   0  0  0  0  0  0  0  0  0  0  0  0
    3.9059   42.0516   50.8278 H   0  0  0  0  0  0  0  0  0  0  0  0
    2.4424   46.7444   55.9983 H   0  0  0  0  0  0  0  0  0  0  0  0
    6.7140   47.8013   53.9237 H   0  0  0  0  0  0  0  0  0  0  0  0
    7.6839   48.0653   55.4139 H   0  0  0  0  0  0  0  0  0  0  0  0
    9.5533   47.2086   54.4886 H   0  0  0  0  0  0  0  0  0  0  0  0
    9.0615   44.9300   54.7016 H   0  0  0  0  0  0  0  0  0  0  0  0
    7.7407   45.0064   53.4666 H   0  0  0  0  0  0  0  0  0  0  0  0
   10.7181   45.3472   52.8978 H   0  0  0  0  0  0  0  0  0  0  0  0
    9.7395   43.8465   52.6159 H   0  0  0  0  0  0  0  0  0  0  0  0
   10.2085   45.6775   50.6950 H   0  0  0  0  0  0  0  0  0  0  0  0
    8.6796   44.6847   50.8164 H   0  0  0  0  0  0  0  0  0  0  0  0
    8.6033   47.3071   50.4121 H   0  0  0  0  0  0  0  0  0  0  0  0
    7.4033   46.4403   51.4628 H   0  0  0  0  0  0  0  0  0  0  0  0
    9.8835   47.9327   52.4075 H   0  0  0  0  0  0  0  0  0  0  0  0
    8.1486   48.4784   52.5305 H   0  0  0  0  0  0  0  0  0  0  0  0
    6.7817   44.8111   52.6379 H   0  0  0  0  0  0  0  0  0  0  0  0
    6.5740   45.2767   49.8993 H   0  0  0  0  0  0  0  0  0  0  0  0
  1  2  2  0
  2  3  1  0
  3  4  2  0
  4  5  1  0
  5  6  1  0
  6  7  2  0
  7  8  1  0
  8  9  2  0
  9 10  1  0
 10 11  2  0
 11 12  1  0
 12 13  1  0
 13 14  1  0
 14 15  1  0
 15 16  1  0
 16 17  1  0
 17 18  1  0
 18 19  1  0
 19 20  1  0
 12 21  2  0
 21 22  1  0
  5 23  2  0
 23  1  1  0
 22  6  1  0
 21  8  1  0
 20 15  1  0
  1 24  1  0
  2 25  1  0
  4 26  1  0
 10 27  1  0
 14 28  1  0
 14 29  1  0
 15 30  1  0
 16 31  1  0
 16 32  1  0
 17 33  1  0
 17 34  1  0
 18 35  1  0
 18 36  1  0
 19 37  1  0
 19 38  1  0
 20 39  1  0
 20 40  1  0
 22 41  1  0
 23 42  1  0
M  END
>  <meeko>  (5) 
{"is_sidechain": false}

>  <CID>  (5) 
49863196

>  <pose_index>  (5) 
8

>  <docking_score>  (5) 
-7.735

>  <rmsd_to_best_selected>  (5) 
0.8953014487200316

>  <MWT>  (5) 
309.37299999999965

>  <TPSA>  (5) 
76.58000000000001

>  <logP>  (5) 
3.3740000000000014

>  <HBD>  (5) 
1

>  <HBA>  (5) 
5

>  <SMILES>  (5) 
[H]c1nc(OC([H])([H])C2([H])C([H])([H])C([H])([H])C([H])([H])C([H])([H])C2([H])[H])c2c(n1)nc(-c1c([H])nc([H])c([H])c1[H])n2[H]

$$$$
49863196_pose10
     RDKit          3D

 42 45  0  0  0  0  0  0  0  0999 V2000
    6.5908   43.4933   48.5875 C   0  0  0  0  0  0  0  0  0  0  0  0
    5.6072   43.5341   47.6151 C   0  0  0  0  0  0  0  0  0  0  0  0
    4.3245   43.8725   47.8645 N   0  0  0  0  0  0  0  0  0  0  0  0
    4.0163   44.1851   49.1482 C   0  0  0  0  0  0  0  0  0  0  0  0
    4.9224   44.1776   50.2065 C   0  0  0  0  0  0  0  0  0  0  0  0
    4.5618   44.5207   51.5839 C   0  0  0  0  0  0  0  0  0  0  0  0
    3.3271   44.5767   52.0633 N   0  0  0  0  0  0  0  0  0  0  0  0
    3.4445   44.9310   53.3790 C   0  0  0  0  0  0  0  0  0  0  0  0
    2.4291   45.1018   54.2437 N   0  0  0  0  0  0  0  0  0  0  0  0
    2.8481   45.4500   55.4687 C   0  0  0  0  0  0  0  0  0  0  0  0
    4.1149   45.6346   55.8961 N   0  0  0  0  0  0  0  0  0  0  0  0
    5.1064   45.4555   55.0036 C   0  0  0  0  0  0  0  0  0  0  0  0
    6.4291   45.6209   55.3468 O   0  0  0  0  0  0  0  0  0  0  0  0
    7.1074   46.5759   54.5272 C   0  0  0  0  0  0  0  0  0  0  0  0
    8.4116   45.9619   53.9884 C   0  0  0  0  0  0  0  0  0  0  0  0
    8.1963   45.3521   52.5890 C   0  0  0  0  0  0  0  0  0  0  0  0
    9.5196   45.1441   51.8645 C   0  0  0  0  0  0  0  0  0  0  0  0
   10.2480   46.4670   51.6236 C   0  0  0  0  0  0  0  0  0  0  0  0
    9.8940   47.5535   52.6392 C   0  0  0  0  0  0  0  0  0  0  0  0
    9.5813   46.9695   54.0136 C   0  0  0  0  0  0  0  0  0  0  0  0
    4.7663   45.0968   53.7221 C   0  0  0  0  0  0  0  0  0  0  0  0
    5.4643   44.8355   52.5807 N   0  0  0  0  0  0  0  0  0  0  0  0
    6.2395   43.8200   49.8965 C   0  0  0  0  0  0  0  0  0  0  0  0
    7.6232   43.2104   48.3343 H   0  0  0  0  0  0  0  0  0  0  0  0
    5.8858   43.2767   46.5826 H   0  0  0  0  0  0  0  0  0  0  0  0
    2.9757   44.4645   49.3695 H   0  0  0  0  0  0  0  0  0  0  0  0
    2.0599   45.6047   56.2202 H   0  0  0  0  0  0  0  0  0  0  0  0
    6.4605   46.8591   53.6837 H   0  0  0  0  0  0  0  0  0  0  0  0
    7.3442   47.4678   55.1259 H   0  0  0  0  0  0  0  0  0  0  0  0
    8.6983   45.1427   54.6643 H   0  0  0  0  0  0  0  0  0  0  0  0
    7.6900   44.3814   52.6956 H   0  0  0  0  0  0  0  0  0  0  0  0
    7.5836   46.0488   51.9981 H   0  0  0  0  0  0  0  0  0  0  0  0
   10.1607   44.4903   52.4741 H   0  0  0  0  0  0  0  0  0  0  0  0
    9.3065   44.6875   50.8866 H   0  0  0  0  0  0  0  0  0  0  0  0
   11.3311   46.2822   51.6752 H   0  0  0  0  0  0  0  0  0  0  0  0
    9.9330   46.8336   50.6355 H   0  0  0  0  0  0  0  0  0  0  0  0
   10.7450   48.2442   52.7317 H   0  0  0  0  0  0  0  0  0  0  0  0
    8.9954   48.0760   52.2791 H   0  0  0  0  0  0  0  0  0  0  0  0
   10.4788   46.4558   54.3887 H   0  0  0  0  0  0  0  0  0  0  0  0
    9.2834   47.8037   54.6659 H   0  0  0  0  0  0  0  0  0  0  0  0
    6.4699   44.8709   52.4967 H   0  0  0  0  0  0  0  0  0  0  0  0
    7.0013   43.7965   50.6897 H   0  0  0  0  0  0  0  0  0  0  0  0
  1  2  2  0
  2  3  1  0
  3  4  2  0
  4  5  1  0
  5  6  1  0
  6  7  2  0
  7  8  1  0
  8  9  2  0
  9 10  1  0
 10 11  2  0
 11 12  1  0
 12 13  1  0
 13 14  1  0
 14 15  1  0
 15 16  1  0
 16 17  1  0
 17 18  1  0
 18 19  1  0
 19 20  1  0
 12 21  2  0
 21 22  1  0
  5 23  2  0
 23  1  1  0
 22  6  1  0
 21  8  1  0
 20 15  1  0
  1 24  1  0
  2 25  1  0
  4 26  1  0
 10 27  1  0
 14 28  1  0
 14 29  1  0
 15 30  1  0
 16 31  1  0
 16 32  1  0
 17 33  1  0
 17 34  1  0
 18 35  1  0
 18 36  1  0
 19 37  1  0
 19 38  1  0
 20 39  1  0
 20 40  1  0
 22 41  1  0
 23 42  1  0
M  END
>  <meeko>  (6) 
{"is_sidechain": false}

>  <CID>  (6) 
49863196

>  <pose_index>  (6) 
10

>  <docking_score>  (6) 
-7.5

>  <rmsd_to_best_selected>  (6) 
1.5397197809749146

>  <MWT>  (6) 
309.37299999999965

>  <TPSA>  (6) 
76.58000000000001

>  <logP>  (6) 
3.3740000000000014

>  <HBD>  (6) 
1

>  <HBA>  (6) 
5

>  <SMILES>  (6) 
[H]c1nc(OC([H])([H])C2([H])C([H])([H])C([H])([H])C([H])([H])C([H])([H])C2([H])[H])c2c(n1)nc(-c1c([H])nc([H])c([H])c1[H])n2[H]

$$$$
