49863194_pose5
     RDKit          3D

 37 40  0  0  0  0  0  0  0  0999 V2000
    4.9348   40.5972   49.4022 C   0  0  0  0  0  0  0  0  0  0  0  0
    5.8674   41.5989   49.1473 C   0  0  0  0  0  0  0  0  0  0  0  0
    5.8738   42.7690   49.9131 C   0  0  0  0  0  0  0  0  0  0  0  0
    4.9442   42.9524   50.9485 C   0  0  0  0  0  0  0  0  0  0  0  0
    4.9092   44.1623   51.7811 C   0  0  0  0  0  0  0  0  0  0  0  0
    3.8172   44.8184   52.1451 N   0  0  0  0  0  0  0  0  0  0  0  0
    4.2425   45.8721   52.9052 C   0  0  0  0  0  0  0  0  0  0  0  0
    3.4560   46.7966   53.4829 N   0  0  0  0  0  0  0  0  0  0  0  0
    4.1547   47.7118   54.1695 C   0  0  0  0  0  0  0  0  0  0  0  0
    5.4922   47.7938   54.3304 N   0  0  0  0  0  0  0  0  0  0  0  0
    6.2514   46.8526   53.7352 C   0  0  0  0  0  0  0  0  0  0  0  0
    7.6234   46.8490   53.8443 O   0  0  0  0  0  0  0  0  0  0  0  0
    8.3094   47.3323   52.6833 C   0  0  0  0  0  0  0  0  0  0  0  0
    8.9010   48.7184   52.9258 C   0  0  0  0  0  0  0  0  0  0  0  0
   10.1234   48.4674   53.8055 C   0  0  0  0  0  0  0  0  0  0  0  0
   10.5536   47.0269   53.5302 C   0  0  0  0  0  0  0  0  0  0  0  0
    9.5677   46.4834   52.4989 C   0  0  0  0  0  0  0  0  0  0  0  0
    5.6144   45.8739   53.0114 C   0  0  0  0  0  0  0  0  0  0  0  0
    6.0241   44.7898   52.2934 N   0  0  0  0  0  0  0  0  0  0  0  0
    4.0132   41.9298   51.1931 C   0  0  0  0  0  0  0  0  0  0  0  0
    4.0068   40.7620   50.4270 C   0  0  0  0  0  0  0  0  0  0  0  0
    4.9311   39.6791   48.7963 H   0  0  0  0  0  0  0  0  0  0  0  0
    6.6029   41.4694   48.3397 H   0  0  0  0  0  0  0  0  0  0  0  0
    6.6150   43.5538   49.7018 H   0  0  0  0  0  0  0  0  0  0  0  0
    3.5626   48.4955   54.6648 H   0  0  0  0  0  0  0  0  0  0  0  0
    7.5912   47.3171   51.8503 H   0  0  0  0  0  0  0  0  0  0  0  0
    9.1964   49.1862   51.9751 H   0  0  0  0  0  0  0  0  0  0  0  0
    8.1806   49.4023   53.3983 H   0  0  0  0  0  0  0  0  0  0  0  0
   10.9326   49.1646   53.5429 H   0  0  0  0  0  0  0  0  0  0  0  0
    9.8918   48.6218   54.8697 H   0  0  0  0  0  0  0  0  0  0  0  0
   11.5777   47.0037   53.1293 H   0  0  0  0  0  0  0  0  0  0  0  0
   10.5496   46.4224   54.4492 H   0  0  0  0  0  0  0  0  0  0  0  0
    9.9679   46.5986   51.4808 H   0  0  0  0  0  0  0  0  0  0  0  0
    9.3704   45.4100   52.6356 H   0  0  0  0  0  0  0  0  0  0  0  0
    6.9841   44.5086   52.1624 H   0  0  0  0  0  0  0  0  0  0  0  0
    3.2768   42.0506   52.0013 H   0  0  0  0  0  0  0  0  0  0  0  0
    3.2689   39.9727   50.6333 H   0  0  0  0  0  0  0  0  0  0  0  0
  1  2  2  0
  2  3  1  0
  3  4  2  0
  4  5  1  0
  5  6  2  0
  6  7  1  0
  7  8  2  0
  8  9  1  0
  9 10  2  0
 10 11  1  0
 11 12  1  0
 12 13  1  0
 13 14  1  0
 14 15  1  0
 15 16  1  0
 16 17  1  0
 11 18  2  0
 18 19  1  0
  4 20  1  0
 20 21  2  0
 21  1  1  0
 19  5  1  0
 18  7  1  0
 17 13  1  0
  1 22  1  0
  2 23  1  0
  3 24  1  0
  9 25  1  0
 13 26  1  0
 14 27  1  0
 14 28  1  0
 15 29  1  0
 15 30  1  0
 16 31  1  0
 16 32  1  0
 17 33  1  0
 17 34  1  0
 19 35  1  0
 20 36  1  0
 21 37  1  0
M  END
>  <meeko>  (1) 
{"is_sidechain": false}

>  <CID>  (1) 
49863194

>  <pose_index>  (1) 
5

>  <docking_score>  (1) 
-7.967

>  <rmsd_to_best_selected>  (1) 
1.523075323400306

>  <MWT>  (1) 
280.3309999999997

>  <TPSA>  (1) 
63.690000000000005

>  <logP>  (1) 
3.3413000000000013

>  <HBD>  (1) 
1

>  <HBA>  (1) 
4

>  <SMILES>  (1) 
[H]c1nc(OC2([H])C([H])([H])C([H])([H])C([H])([H])C2([H])[H])c2c(n1)nc(-c1c([H])c([H])c([H])c([H])c1[H])n2[H]

$$$$
49863194_pose1
     RDKit          3D

 37 40  0  0  0  0  0  0  0  0999 V2000
    5.2090   41.0980   49.0130 C   0  0  0  0  0  0  0  0  0  0  0  0
    4.1990   41.1290   49.9710 C   0  0  0  0  0  0  0  0  0  0  0  0
    4.1310   42.1800   50.8910 C   0  0  0  0  0  0  0  0  0  0  0  0
    5.0750   43.2180   50.8640 C   0  0  0  0  0  0  0  0  0  0  0  0
    5.0470   44.3430   51.8070 C   0  0  0  0  0  0  0  0  0  0  0  0
    3.9840   45.0770   52.1030 N   0  0  0  0  0  0  0  0  0  0  0  0
    4.4040   46.0060   53.0140 C   0  0  0  0  0  0  0  0  0  0  0  0
    3.6400   46.9530   53.5860 N   0  0  0  0  0  0  0  0  0  0  0  0
    4.3260   47.7210   54.4430 C   0  0  0  0  0  0  0  0  0  0  0  0
    5.6330   47.6450   54.7710 N   0  0  0  0  0  0  0  0  0  0  0  0
    6.3700   46.6860   54.1780 C   0  0  0  0  0  0  0  0  0  0  0  0
    7.7100   46.5260   54.4510 O   0  0  0  0  0  0  0  0  0  0  0  0
    8.5170   47.6670   54.1360 C   0  0  0  0  0  0  0  0  0  0  0  0
   10.0040   47.3140   54.1520 C   0  0  0  0  0  0  0  0  0  0  0  0
   10.2270   46.5330   52.8590 C   0  0  0  0  0  0  0  0  0  0  0  0
    9.1240   46.9770   51.8990 C   0  0  0  0  0  0  0  0  0  0  0  0
    8.2920   48.0050   52.6630 C   0  0  0  0  0  0  0  0  0  0  0  0
    5.7440   45.8510   53.2840 C   0  0  0  0  0  0  0  0  0  0  0  0
    6.1400   44.7990   52.5130 N   0  0  0  0  0  0  0  0  0  0  0  0
    6.0840   43.1720   49.8890 C   0  0  0  0  0  0  0  0  0  0  0  0
    6.1530   42.1210   48.9700 C   0  0  0  0  0  0  0  0  0  0  0  0
    5.2611   40.2683   48.2926 H   0  0  0  0  0  0  0  0  0  0  0  0
    3.4511   40.3230   50.0043 H   0  0  0  0  0  0  0  0  0  0  0  0
    3.3291   42.1932   51.6438 H   0  0  0  0  0  0  0  0  0  0  0  0
    3.7509   48.5144   54.9429 H   0  0  0  0  0  0  0  0  0  0  0  0
    8.2596   48.4580   54.8558 H   0  0  0  0  0  0  0  0  0  0  0  0
   10.6196   48.2255   54.1665 H   0  0  0  0  0  0  0  0  0  0  0  0
   10.2863   46.7350   55.0437 H   0  0  0  0  0  0  0  0  0  0  0  0
   11.2161   46.7664   52.4380 H   0  0  0  0  0  0  0  0  0  0  0  0
   10.1935   45.4476   53.0347 H   0  0  0  0  0  0  0  0  0  0  0  0
    9.5613   47.4322   50.9981 H   0  0  0  0  0  0  0  0  0  0  0  0
    8.5101   46.1262   51.5684 H   0  0  0  0  0  0  0  0  0  0  0  0
    8.6375   49.0256   52.4418 H   0  0  0  0  0  0  0  0  0  0  0  0
    7.2283   47.9695   52.3852 H   0  0  0  0  0  0  0  0  0  0  0  0
    7.0780   44.4300   52.4700 H   0  0  0  0  0  0  0  0  0  0  0  0
    6.8329   43.9766   49.8475 H   0  0  0  0  0  0  0  0  0  0  0  0
    6.9518   42.1020   48.2139 H   0  0  0  0  0  0  0  0  0  0  0  0
  1  2  2  0
  2  3  1  0
  3  4  2  0
  4  5  1  0
  5  6  2  0
  6  7  1  0
  7  8  2  0
  8  9  1  0
  9 10  2  0
 10 11  1  0
 11 12  1  0
 12 13  1  0
 13 14  1  0
 14 15  1  0
 15 16  1  0
 16 17  1  0
 11 18  2  0
 18 19  1  0
  4 20  1  0
 20 21  2  0
 21  1  1  0
 19  5  1  0
 18  7  1  0
 17 13  1  0
  1 22  1  0
  2 23  1  0
  3 24  1  0
  9 25  1  0
 13 26  1  0
 14 27  1  0
 14 28  1  0
 15 29  1  0
 15 30  1  0
 16 31  1  0
 16 32  1  0
 17 33  1  0
 17 34  1  0
 19 35  1  0
 20 36  1  0
 21 37  1  0
M  END
>  <meeko>  (2) 
{"is_sidechain": false}

>  <CID>  (2) 
49863194

>  <pose_index>  (2) 
1

>  <docking_score>  (2) 
-9.572

>  <rmsd_to_best_selected>  (2) 
0.0

>  <MWT>  (2) 
280.3309999999997

>  <TPSA>  (2) 
63.690000000000005

>  <logP>  (2) 
3.3413000000000013

>  <HBD>  (2) 
1

>  <HBA>  (2) 
4

>  <SMILES>  (2) 
[H]c1nc(OC2([H])C([H])([H])C([H])([H])C([H])([H])C2([H])[H])c2c(n1)nc(-c1c([H])c([H])c([H])c([H])c1[H])n2[H]

$$$$
49863194_pose2
     RDKit          3D

 37 40  0  0  0  0  0  0  0  0999 V2000
    4.7706   41.3409   48.7547 C   0  0  0  0  0  0  0  0  0  0  0  0
    3.5845   41.8876   49.2365 C   0  0  0  0  0  0  0  0  0  0  0  0
    3.6094   42.8145   50.2845 C   0  0  0  0  0  0  0  0  0  0  0  0
    4.8255   43.2055   50.8659 C   0  0  0  0  0  0  0  0  0  0  0  0
    4.9052   44.1730   51.9671 C   0  0  0  0  0  0  0  0  0  0  0  0
    3.8848   44.5961   52.6988 N   0  0  0  0  0  0  0  0  0  0  0  0
    4.4042   45.4843   53.5994 C   0  0  0  0  0  0  0  0  0  0  0  0
    3.7133   46.1515   54.5402 N   0  0  0  0  0  0  0  0  0  0  0  0
    4.4902   46.9534   55.2809 C   0  0  0  0  0  0  0  0  0  0  0  0
    5.8226   47.1481   55.1831 N   0  0  0  0  0  0  0  0  0  0  0  0
    6.4844   46.4662   54.2280 C   0  0  0  0  0  0  0  0  0  0  0  0
    7.8437   46.5937   54.0528 O   0  0  0  0  0  0  0  0  0  0  0  0
    8.2330   47.7088   53.2409 C   0  0  0  0  0  0  0  0  0  0  0  0
    9.4504   48.4213   53.8269 C   0  0  0  0  0  0  0  0  0  0  0  0
   10.6259   47.5026   53.5026 C   0  0  0  0  0  0  0  0  0  0  0  0
   10.2029   46.6878   52.2809 C   0  0  0  0  0  0  0  0  0  0  0  0
    8.7934   47.1567   51.9309 C   0  0  0  0  0  0  0  0  0  0  0  0
    5.7626   45.6185   53.4230 C   0  0  0  0  0  0  0  0  0  0  0  0
    6.0664   44.7868   52.3868 N   0  0  0  0  0  0  0  0  0  0  0  0
    6.0114   42.6458   50.3638 C   0  0  0  0  0  0  0  0  0  0  0  0
    5.9862   41.7195   49.3178 C   0  0  0  0  0  0  0  0  0  0  0  0
    4.7474   40.6117   47.9314 H   0  0  0  0  0  0  0  0  0  0  0  0
    2.6237   41.5897   48.7916 H   0  0  0  0  0  0  0  0  0  0  0  0
    2.6662   43.2410   50.6565 H   0  0  0  0  0  0  0  0  0  0  0  0
    3.9776   47.5256   56.0683 H   0  0  0  0  0  0  0  0  0  0  0  0
    7.3578   48.3689   53.1499 H   0  0  0  0  0  0  0  0  0  0  0  0
    9.5867   49.4069   53.3579 H   0  0  0  0  0  0  0  0  0  0  0  0
    9.3481   48.6032   54.9069 H   0  0  0  0  0  0  0  0  0  0  0  0
   11.5227   48.0967   53.2733 H   0  0  0  0  0  0  0  0  0  0  0  0
   10.8734   46.8512   54.3538 H   0  0  0  0  0  0  0  0  0  0  0  0
   10.8878   46.8749   51.4407 H   0  0  0  0  0  0  0  0  0  0  0  0
   10.2288   45.6077   52.4878 H   0  0  0  0  0  0  0  0  0  0  0  0
    8.8255   47.9419   51.1611 H   0  0  0  0  0  0  0  0  0  0  0  0
    8.1738   46.3451   51.5219 H   0  0  0  0  0  0  0  0  0  0  0  0
    6.9877   44.6561   51.9966 H   0  0  0  0  0  0  0  0  0  0  0  0
    6.9764   42.9414   50.8013 H   0  0  0  0  0  0  0  0  0  0  0  0
    6.9258   41.2901   48.9397 H   0  0  0  0  0  0  0  0  0  0  0  0
  1  2  2  0
  2  3  1  0
  3  4  2  0
  4  5  1  0
  5  6  2  0
  6  7  1  0
  7  8  2  0
  8  9  1  0
  9 10  2  0
 10 11  1  0
 11 12  1  0
 12 13  1  0
 13 14  1  0
 14 15  1  0
 15 16  1  0
 16 17  1  0
 11 18  2  0
 18 19  1  0
  4 20  1  0
 20 21  2  0
 21  1  1  0
 19  5  1  0
 18  7  1  0
 17 13  1  0
  1 22  1  0
  2 23  1  0
  3 24  1  0
  9 25  1  0
 13 26  1  0
 14 27  1  0
 14 28  1  0
 15 29  1  0
 15 30  1  0
 16 31  1  0
 16 32  1  0
 17 33  1  0
 17 34  1  0
 19 35  1  0
 20 36  1  0
 21 37  1  0
M  END
>  <meeko>  (3) 
{"is_sidechain": false}

>  <CID>  (3) 
49863194

>  <pose_index>  (3) 
2

>  <docking_score>  (3) 
-8.662

>  <rmsd_to_best_selected>  (3) 
1.2692633167838325

>  <MWT>  (3) 
280.3309999999997

>  <TPSA>  (3) 
63.690000000000005

>  <logP>  (3) 
3.3413000000000013

>  <HBD>  (3) 
1

>  <HBA>  (3) 
4

>  <SMILES>  (3) 
[H]c1nc(OC2([H])C([H])([H])C([H])([H])C([H])([H])C2([H])[H])c2c(n1)nc(-c1c([H])c([H])c([H])c([H])c1[H])n2[H]

$$$$
49863194_pose3
     RDKit          3D

 37 40  0  0  0  0  0  0  0  0999 V2000
    5.1280   41.2062   48.9228 C   0  0  0  0  0  0  0  0  0  0  0  0
    3.9568   41.4066   49.6488 C   0  0  0  0  0  0  0  0  0  0  0  0
    3.8922   42.4078   50.6228 C   0  0  0  0  0  0  0  0  0  0  0  0
    5.0036   43.2237   50.8853 C   0  0  0  0  0  0  0  0  0  0  0  0
    4.9872   44.2890   51.8968 C   0  0  0  0  0  0  0  0  0  0  0  0
    3.9034   44.8794   52.3792 N   0  0  0  0  0  0  0  0  0  0  0  0
    4.3450   45.8014   53.2865 C   0  0  0  0  0  0  0  0  0  0  0  0
    3.5719   46.6248   54.0166 N   0  0  0  0  0  0  0  0  0  0  0  0
    4.2846   47.4210   54.8253 C   0  0  0  0  0  0  0  0  0  0  0  0
    5.6255   47.4774   54.9716 N   0  0  0  0  0  0  0  0  0  0  0  0
    6.3704   46.6407   54.2243 C   0  0  0  0  0  0  0  0  0  0  0  0
    7.7453   46.6203   54.3065 O   0  0  0  0  0  0  0  0  0  0  0  0
    8.3844   47.7958   53.7940 C   0  0  0  0  0  0  0  0  0  0  0  0
    9.8840   47.7811   54.0854 C   0  0  0  0  0  0  0  0  0  0  0  0
   10.4596   46.7742   53.0907 C   0  0  0  0  0  0  0  0  0  0  0  0
    9.4782   46.7284   51.9193 C   0  0  0  0  0  0  0  0  0  0  0  0
    8.3616   47.7098   52.2680 C   0  0  0  0  0  0  0  0  0  0  0  0
    5.7186   45.7879   53.3670 C   0  0  0  0  0  0  0  0  0  0  0  0
    6.1126   44.8286   52.4809 N   0  0  0  0  0  0  0  0  0  0  0  0
    6.1756   43.0096   50.1414 C   0  0  0  0  0  0  0  0  0  0  0  0
    6.2387   42.0085   49.1681 C   0  0  0  0  0  0  0  0  0  0  0  0
    5.1754   40.4167   48.1582 H   0  0  0  0  0  0  0  0  0  0  0  0
    3.0779   40.7741   49.4551 H   0  0  0  0  0  0  0  0  0  0  0  0
    2.9610   42.5575   51.1890 H   0  0  0  0  0  0  0  0  0  0  0  0
    3.7036   48.1165   55.4488 H   0  0  0  0  0  0  0  0  0  0  0  0
    7.8740   48.6647   54.2350 H   0  0  0  0  0  0  0  0  0  0  0  0
   10.3205   48.7780   53.9255 H   0  0  0  0  0  0  0  0  0  0  0  0
   10.1038   47.5097   55.1285 H   0  0  0  0  0  0  0  0  0  0  0  0
   11.4511   47.1023   52.7457 H   0  0  0  0  0  0  0  0  0  0  0  0
   10.5849   45.7823   53.5495 H   0  0  0  0  0  0  0  0  0  0  0  0
    9.9790   47.0340   50.9889 H   0  0  0  0  0  0  0  0  0  0  0  0
    9.0871   45.7127   51.7605 H   0  0  0  0  0  0  0  0  0  0  0  0
    8.5576   48.6955   51.8208 H   0  0  0  0  0  0  0  0  0  0  0  0
    7.3843   47.3825   51.8837 H   0  0  0  0  0  0  0  0  0  0  0  0
    7.0693   44.5710   52.2896 H   0  0  0  0  0  0  0  0  0  0  0  0
    7.0578   43.6397   50.3279 H   0  0  0  0  0  0  0  0  0  0  0  0
    7.1656   41.8548   48.5962 H   0  0  0  0  0  0  0  0  0  0  0  0
  1  2  2  0
  2  3  1  0
  3  4  2  0
  4  5  1  0
  5  6  2  0
  6  7  1  0
  7  8  2  0
  8  9  1  0
  9 10  2  0
 10 11  1  0
 11 12  1  0
 12 13  1  0
 13 14  1  0
 14 15  1  0
 15 16  1  0
 16 17  1  0
 11 18  2  0
 18 19  1  0
  4 20  1  0
 20 21  2  0
 21  1  1  0
 19  5  1  0
 18  7  1  0
 17 13  1  0
  1 22  1  0
  2 23  1  0
  3 24  1  0
  9 25  1  0
 13 26  1  0
 14 27  1  0
 14 28  1  0
 15 29  1  0
 15 30  1  0
 16 31  1  0
 16 32  1  0
 17 33  1  0
 17 34  1  0
 19 35  1  0
 20 36  1  0
 21 37  1  0
M  END
>  <meeko>  (4) 
{"is_sidechain": false}

>  <CID>  (4) 
49863194

>  <pose_index>  (4) 
3

>  <docking_score>  (4) 
-8.169

>  <rmsd_to_best_selected>  (4) 
0.4991998560747182

>  <MWT>  (4) 
280.3309999999997

>  <TPSA>  (4) 
63.690000000000005

>  <logP>  (4) 
3.3413000000000013

>  <HBD>  (4) 
1

>  <HBA>  (4) 
4

>  <SMILES>  (4) 
[H]c1nc(OC2([H])C([H])([H])C([H])([H])C([H])([H])C2([H])[H])c2c(n1)nc(-c1c([H])c([H])c([H])c([H])c1[H])n2[H]

$$$$
49863194_pose4
     RDKit          3D

 37 40  0  0  0  0  0  0  0  0999 V2000
    4.5556   40.3985   49.2278 C   0  0  0  0  0  0  0  0  0  0  0  0
    3.4098   40.9033   49.8359 C   0  0  0  0  0  0  0  0  0  0  0  0
    3.4773   42.0604   50.6189 C   0  0  0  0  0  0  0  0  0  0  0  0
    4.6976   42.7295   50.8038 C   0  0  0  0  0  0  0  0  0  0  0  0
    4.8215   43.9470   51.6150 C   0  0  0  0  0  0  0  0  0  0  0  0
    3.8211   44.5951   52.1937 N   0  0  0  0  0  0  0  0  0  0  0  0
    4.3817   45.6617   52.8403 C   0  0  0  0  0  0  0  0  0  0  0  0
    3.7211   46.5838   53.5617 N   0  0  0  0  0  0  0  0  0  0  0  0
    4.5359   47.5134   54.0809 C   0  0  0  0  0  0  0  0  0  0  0  0
    5.8766   47.6121   53.9579 N   0  0  0  0  0  0  0  0  0  0  0  0
    6.5059   46.6729   53.2261 C   0  0  0  0  0  0  0  0  0  0  0  0
    7.8720   46.6853   53.0471 O   0  0  0  0  0  0  0  0  0  0  0  0
    8.5897   47.4409   54.0298 C   0  0  0  0  0  0  0  0  0  0  0  0
   10.0364   46.9656   54.1453 C   0  0  0  0  0  0  0  0  0  0  0  0
   10.7252   47.5244   52.9027 C   0  0  0  0  0  0  0  0  0  0  0  0
    9.9084   48.7446   52.4782 C   0  0  0  0  0  0  0  0  0  0  0  0
    8.7686   48.8589   53.4871 C   0  0  0  0  0  0  0  0  0  0  0  0
    5.7453   45.6794   52.6584 C   0  0  0  0  0  0  0  0  0  0  0  0
    6.0111   44.5927   51.8800 N   0  0  0  0  0  0  0  0  0  0  0  0
    5.8413   42.2071   50.1793 C   0  0  0  0  0  0  0  0  0  0  0  0
    5.7730   41.0511   49.3981 C   0  0  0  0  0  0  0  0  0  0  0  0
    4.4991   39.4869   48.6147 H   0  0  0  0  0  0  0  0  0  0  0  0
    2.4466   40.3897   49.7000 H   0  0  0  0  0  0  0  0  0  0  0  0
    2.5652   42.4499   51.0945 H   0  0  0  0  0  0  0  0  0  0  0  0
    4.0503   48.2949   54.6837 H   0  0  0  0  0  0  0  0  0  0  0  0
    8.0371   47.3538   54.9769 H   0  0  0  0  0  0  0  0  0  0  0  0
   10.5034   47.3613   55.0593 H   0  0  0  0  0  0  0  0  0  0  0  0
   10.1121   45.8700   54.2073 H   0  0  0  0  0  0  0  0  0  0  0  0
   11.7582   47.8198   53.1390 H   0  0  0  0  0  0  0  0  0  0  0  0
   10.7750   46.7747   52.0993 H   0  0  0  0  0  0  0  0  0  0  0  0
   10.5328   49.6499   52.5026 H   0  0  0  0  0  0  0  0  0  0  0  0
    9.5287   48.6382   51.4513 H   0  0  0  0  0  0  0  0  0  0  0  0
    9.0352   49.5538   54.2970 H   0  0  0  0  0  0  0  0  0  0  0  0
    7.8468   49.2506   53.0322 H   0  0  0  0  0  0  0  0  0  0  0  0
    6.9260   44.3196   51.5535 H   0  0  0  0  0  0  0  0  0  0  0  0
    6.8076   42.7169   50.3073 H   0  0  0  0  0  0  0  0  0  0  0  0
    6.6808   40.6569   48.9180 H   0  0  0  0  0  0  0  0  0  0  0  0
  1  2  2  0
  2  3  1  0
  3  4  2  0
  4  5  1  0
  5  6  2  0
  6  7  1  0
  7  8  2  0
  8  9  1  0
  9 10  2  0
 10 11  1  0
 11 12  1  0
 12 13  1  0
 13 14  1  0
 14 15  1  0
 15 16  1  0
 16 17  1  0
 11 18  2  0
 18 19  1  0
  4 20  1  0
 20 21  2  0
 21  1  1  0
 19  5  1  0
 18  7  1  0
 17 13  1  0
  1 22  1  0
  2 23  1  0
  3 24  1  0
  9 25  1  0
 13 26  1  0
 14 27  1  0
 14 28  1  0
 15 29  1  0
 15 30  1  0
 16 31  1  0
 16 32  1  0
 17 33  1  0
 17 34  1  0
 19 35  1  0
 20 36  1  0
 21 37  1  0
M  END
>  <meeko>  (5) 
{"is_sidechain": false}

>  <CID>  (5) 
49863194

>  <pose_index>  (5) 
4

>  <docking_score>  (5) 
-8.152

>  <rmsd_to_best_selected>  (5) 
1.247501850541357

>  <MWT>  (5) 
280.3309999999997

>  <TPSA>  (5) 
63.690000000000005

>  <logP>  (5) 
3.3413000000000013

>  <HBD>  (5) 
1

>  <HBA>  (5) 
4

>  <SMILES>  (5) 
[H]c1nc(OC2([H])C([H])([H])C([H])([H])C([H])([H])C2([H])[H])c2c(n1)nc(-c1c([H])c([H])c([H])c([H])c1[H])n2[H]

$$$$
49863194_pose6
     RDKit          3D

 37 40  0  0  0  0  0  0  0  0999 V2000
    5.4393   40.7354   49.5223 C   0  0  0  0  0  0  0  0  0  0  0  0
    4.1600   41.2369   49.7486 C   0  0  0  0  0  0  0  0  0  0  0  0
    3.9805   42.3927   50.5152 C   0  0  0  0  0  0  0  0  0  0  0  0
    5.0823   43.0646   51.0651 C   0  0  0  0  0  0  0  0  0  0  0  0
    4.9464   44.2829   51.8758 C   0  0  0  0  0  0  0  0  0  0  0  0
    3.8768   44.6291   52.5766 N   0  0  0  0  0  0  0  0  0  0  0  0
    4.1814   45.8224   53.1693 C   0  0  0  0  0  0  0  0  0  0  0  0
    3.3723   46.5316   53.9771 N   0  0  0  0  0  0  0  0  0  0  0  0
    3.9422   47.6642   54.4125 C   0  0  0  0  0  0  0  0  0  0  0  0
    5.1758   48.1384   54.1364 N   0  0  0  0  0  0  0  0  0  0  0  0
    5.9579   47.4044   53.3218 C   0  0  0  0  0  0  0  0  0  0  0  0
    7.2324   47.8023   52.9853 O   0  0  0  0  0  0  0  0  0  0  0  0
    8.2722   47.0832   53.6579 C   0  0  0  0  0  0  0  0  0  0  0  0
    9.0383   46.1836   52.6898 C   0  0  0  0  0  0  0  0  0  0  0  0
    9.9224   47.1402   51.8935 C   0  0  0  0  0  0  0  0  0  0  0  0
   10.1222   48.3695   52.7801 C   0  0  0  0  0  0  0  0  0  0  0  0
    9.3474   48.0911   54.0649 C   0  0  0  0  0  0  0  0  0  0  0  0
    5.4519   46.2257   52.8306 C   0  0  0  0  0  0  0  0  0  0  0  0
    5.9243   45.2447   52.0098 N   0  0  0  0  0  0  0  0  0  0  0  0
    6.3643   42.5480   50.8229 C   0  0  0  0  0  0  0  0  0  0  0  0
    6.5441   41.3917   50.0580 C   0  0  0  0  0  0  0  0  0  0  0  0
    5.5764   39.8238   48.9221 H   0  0  0  0  0  0  0  0  0  0  0  0
    3.2866   40.7214   49.3225 H   0  0  0  0  0  0  0  0  0  0  0  0
    2.9652   42.7788   50.6887 H   0  0  0  0  0  0  0  0  0  0  0  0
    3.3267   48.2860   55.0792 H   0  0  0  0  0  0  0  0  0  0  0  0
    7.8027   46.5216   54.4790 H   0  0  0  0  0  0  0  0  0  0  0  0
    9.6517   45.4546   53.2397 H   0  0  0  0  0  0  0  0  0  0  0  0
    8.3672   45.5995   52.0430 H   0  0  0  0  0  0  0  0  0  0  0  0
   10.8909   46.6688   51.6705 H   0  0  0  0  0  0  0  0  0  0  0  0
    9.4601   47.4087   50.9322 H   0  0  0  0  0  0  0  0  0  0  0  0
   11.1903   48.5120   53.0010 H   0  0  0  0  0  0  0  0  0  0  0  0
    9.7668   49.2854   52.2853 H   0  0  0  0  0  0  0  0  0  0  0  0
   10.0094   47.6636   54.8324 H   0  0  0  0  0  0  0  0  0  0  0  0
    8.9178   49.0060   54.4988 H   0  0  0  0  0  0  0  0  0  0  0  0
    6.8350   45.2391   51.5747 H   0  0  0  0  0  0  0  0  0  0  0  0
    7.2424   43.0613   51.2419 H   0  0  0  0  0  0  0  0  0  0  0  0
    7.5568   41.0011   49.8797 H   0  0  0  0  0  0  0  0  0  0  0  0
  1  2  2  0
  2  3  1  0
  3  4  2  0
  4  5  1  0
  5  6  2  0
  6  7  1  0
  7  8  2  0
  8  9  1  0
  9 10  2  0
 10 11  1  0
 11 12  1  0
 12 13  1  0
 13 14  1  0
 14 15  1  0
 15 16  1  0
 16 17  1  0
 11 18  2  0
 18 19  1  0
  4 20  1  0
 20 21  2  0
 21  1  1  0
 19  5  1  0
 18  7  1  0
 17 13  1  0
  1 22  1  0
  2 23  1  0
  3 24  1  0
  9 25  1  0
 13 26  1  0
 14 27  1  0
 14 28  1  0
 15 29  1  0
 15 30  1  0
 16 31  1  0
 16 32  1  0
 17 33  1  0
 17 34  1  0
 19 35  1  0
 20 36  1  0
 21 37  1  0
M  END
>  <meeko>  (6) 
{"is_sidechain": false}

>  <CID>  (6) 
49863194

>  <pose_index>  (6) 
6

>  <docking_score>  (6) 
-7.958

>  <rmsd_to_best_selected>  (6) 
1.4852985906297616

>  <MWT>  (6) 
280.3309999999997

>  <TPSA>  (6) 
63.690000000000005

>  <logP>  (6) 
3.3413000000000013

>  <HBD>  (6) 
1

>  <HBA>  (6) 
4

>  <SMILES>  (6) 
[H]c1nc(OC2([H])C([H])([H])C([H])([H])C([H])([H])C2([H])[H])c2c(n1)nc(-c1c([H])c([H])c([H])c([H])c1[H])n2[H]

$$$$
49863194_pose7
     RDKit          3D

 37 40  0  0  0  0  0  0  0  0999 V2000
    4.6838   40.5093   49.3943 C   0  0  0  0  0  0  0  0  0  0  0  0
    5.8886   40.7924   50.0305 C   0  0  0  0  0  0  0  0  0  0  0  0
    5.9989   41.9056   50.8705 C   0  0  0  0  0  0  0  0  0  0  0  0
    4.9007   42.7515   51.0862 C   0  0  0  0  0  0  0  0  0  0  0  0
    4.9647   43.9310   51.9578 C   0  0  0  0  0  0  0  0  0  0  0  0
    3.9268   44.5373   52.5153 N   0  0  0  0  0  0  0  0  0  0  0  0
    4.4375   45.5799   53.2372 C   0  0  0  0  0  0  0  0  0  0  0  0
    3.7270   46.4586   53.9671 N   0  0  0  0  0  0  0  0  0  0  0  0
    4.4997   47.3731   54.5678 C   0  0  0  0  0  0  0  0  0  0  0  0
    5.8435   47.4968   54.5169 N   0  0  0  0  0  0  0  0  0  0  0  0
    6.5232   46.6022   53.7738 C   0  0  0  0  0  0  0  0  0  0  0  0
    7.8958   46.6424   53.6635 O   0  0  0  0  0  0  0  0  0  0  0  0
    8.3745   47.3328   52.5036 C   0  0  0  0  0  0  0  0  0  0  0  0
    8.5725   48.8207   52.7873 C   0  0  0  0  0  0  0  0  0  0  0  0
    9.8519   48.8870   53.6171 C   0  0  0  0  0  0  0  0  0  0  0  0
   10.6493   47.6307   53.2683 C   0  0  0  0  0  0  0  0  0  0  0  0
    9.8084   46.8701   52.2453 C   0  0  0  0  0  0  0  0  0  0  0  0
    5.8079   45.6260   53.1242 C   0  0  0  0  0  0  0  0  0  0  0  0
    6.1288   44.5799   52.3102 N   0  0  0  0  0  0  0  0  0  0  0  0
    3.6922   42.4476   50.4386 C   0  0  0  0  0  0  0  0  0  0  0  0
    3.5828   41.3361   49.5988 C   0  0  0  0  0  0  0  0  0  0  0  0
    4.6018   39.6350   48.7319 H   0  0  0  0  0  0  0  0  0  0  0  0
    6.7583   40.1377   49.8722 H   0  0  0  0  0  0  0  0  0  0  0  0
    6.9568   42.1199   51.3670 H   0  0  0  0  0  0  0  0  0  0  0  0
    3.9722   48.1187   55.1808 H   0  0  0  0  0  0  0  0  0  0  0  0
    7.6549   47.1471   51.6927 H   0  0  0  0  0  0  0  0  0  0  0  0
    8.6886   49.3829   51.8489 H   0  0  0  0  0  0  0  0  0  0  0  0
    7.7123   49.2640   53.3103 H   0  0  0  0  0  0  0  0  0  0  0  0
   10.4277   49.7882   53.3597 H   0  0  0  0  0  0  0  0  0  0  0  0
    9.6305   48.9363   54.6935 H   0  0  0  0  0  0  0  0  0  0  0  0
   11.6231   47.9037   52.8357 H   0  0  0  0  0  0  0  0  0  0  0  0
   10.8492   47.0192   54.1606 H   0  0  0  0  0  0  0  0  0  0  0  0
   10.1197   47.1239   51.2212 H   0  0  0  0  0  0  0  0  0  0  0  0
    9.9187   45.7800   52.3426 H   0  0  0  0  0  0  0  0  0  0  0  0
    7.0630   44.3365   52.0174 H   0  0  0  0  0  0  0  0  0  0  0  0
    2.8171   43.0953   50.5952 H   0  0  0  0  0  0  0  0  0  0  0  0
    2.6277   41.1148   49.0999 H   0  0  0  0  0  0  0  0  0  0  0  0
  1  2  2  0
  2  3  1  0
  3  4  2  0
  4  5  1  0
  5  6  2  0
  6  7  1  0
  7  8  2  0
  8  9  1  0
  9 10  2  0
 10 11  1  0
 11 12  1  0
 12 13  1  0
 13 14  1  0
 14 15  1  0
 15 16  1  0
 16 17  1  0
 11 18  2  0
 18 19  1  0
  4 20  1  0
 20 21  2  0
 21  1  1  0
 19  5  1  0
 18  7  1  0
 17 13  1  0
  1 22  1  0
  2 23  1  0
  3 24  1  0
  9 25  1  0
 13 26  1  0
 14 27  1  0
 14 28  1  0
 15 29  1  0
 15 30  1  0
 16 31  1  0
 16 32  1  0
 17 33  1  0
 17 34  1  0
 19 35  1  0
 20 36  1  0
 21 37  1  0
M  END
>  <meeko>  (7) 
{"is_sidechain": false}

>  <CID>  (7) 
49863194

>  <pose_index>  (7) 
7

>  <docking_score>  (7) 
-7.647

>  <rmsd_to_best_selected>  (7) 
1.7412559638818077

>  <MWT>  (7) 
280.3309999999997

>  <TPSA>  (7) 
63.690000000000005

>  <logP>  (7) 
3.3413000000000013

>  <HBD>  (7) 
1

>  <HBA>  (7) 
4

>  <SMILES>  (7) 
[H]c1nc(OC2([H])C([H])([H])C([H])([H])C([H])([H])C2([H])[H])c2c(n1)nc(-c1c([H])c([H])c([H])c([H])c1[H])n2[H]

$$$$
49863194_pose8
     RDKit          3D

 37 40  0  0  0  0  0  0  0  0999 V2000
    5.2386   40.5524   49.5739 C   0  0  0  0  0  0  0  0  0  0  0  0
    4.1363   40.7306   50.4048 C   0  0  0  0  0  0  0  0  0  0  0  0
    4.0144   41.8906   51.1782 C   0  0  0  0  0  0  0  0  0  0  0  0
    4.9987   42.8901   51.1280 C   0  0  0  0  0  0  0  0  0  0  0  0
    4.9174   44.1256   51.9188 C   0  0  0  0  0  0  0  0  0  0  0  0
    3.7999   44.7305   52.2937 N   0  0  0  0  0  0  0  0  0  0  0  0
    4.1844   45.8344   53.0032 C   0  0  0  0  0  0  0  0  0  0  0  0
    3.3623   46.7329   53.5727 N   0  0  0  0  0  0  0  0  0  0  0  0
    4.0260   47.7102   54.2054 C   0  0  0  0  0  0  0  0  0  0  0  0
    5.3611   47.8752   54.3206 N   0  0  0  0  0  0  0  0  0  0  0  0
    6.1558   46.9589   53.7363 C   0  0  0  0  0  0  0  0  0  0  0  0
    7.5290   47.0377   53.8025 O   0  0  0  0  0  0  0  0  0  0  0  0
    8.1389   47.6714   52.6721 C   0  0  0  0  0  0  0  0  0  0  0  0
    9.0234   48.8397   53.1027 C   0  0  0  0  0  0  0  0  0  0  0  0
   10.2751   48.1818   53.6797 C   0  0  0  0  0  0  0  0  0  0  0  0
   10.3677   46.8025   53.0274 C   0  0  0  0  0  0  0  0  0  0  0  0
    9.1660   46.6996   52.0910 C   0  0  0  0  0  0  0  0  0  0  0  0
    5.5568   45.9190   53.0666 C   0  0  0  0  0  0  0  0  0  0  0  0
    6.0086   44.8345   52.3748 N   0  0  0  0  0  0  0  0  0  0  0  0
    6.1011   42.6946   50.2824 C   0  0  0  0  0  0  0  0  0  0  0  0
    6.2225   41.5350   49.5111 C   0  0  0  0  0  0  0  0  0  0  0  0
    5.3319   39.6384   48.9690 H   0  0  0  0  0  0  0  0  0  0  0  0
    3.3571   39.9557   50.4539 H   0  0  0  0  0  0  0  0  0  0  0  0
    3.1390   42.0203   51.8316 H   0  0  0  0  0  0  0  0  0  0  0  0
    3.4039   48.4753   54.6929 H   0  0  0  0  0  0  0  0  0  0  0  0
    7.3291   47.9787   51.9940 H   0  0  0  0  0  0  0  0  0  0  0  0
    9.2795   49.4717   52.2396 H   0  0  0  0  0  0  0  0  0  0  0  0
    8.5235   49.4959   53.8303 H   0  0  0  0  0  0  0  0  0  0  0  0
   11.1665   48.7792   53.4377 H   0  0  0  0  0  0  0  0  0  0  0  0
   10.2202   48.1053   54.7757 H   0  0  0  0  0  0  0  0  0  0  0  0
   11.3047   46.7105   52.4586 H   0  0  0  0  0  0  0  0  0  0  0  0
   10.3631   45.9995   53.7793 H   0  0  0  0  0  0  0  0  0  0  0  0
    9.4443   46.9946   51.0685 H   0  0  0  0  0  0  0  0  0  0  0  0
    8.7769   45.6730   52.0236 H   0  0  0  0  0  0  0  0  0  0  0  0
    6.9788   44.6036   52.2231 H   0  0  0  0  0  0  0  0  0  0  0  0
    6.8827   43.4665   50.2254 H   0  0  0  0  0  0  0  0  0  0  0  0
    7.0949   41.3992   48.8550 H   0  0  0  0  0  0  0  0  0  0  0  0
  1  2  2  0
  2  3  1  0
  3  4  2  0
  4  5  1  0
  5  6  2  0
  6  7  1  0
  7  8  2  0
  8  9  1  0
  9 10  2  0
 10 11  1  0
 11 12  1  0
 12 13  1  0
 13 14  1  0
 14 15  1  0
 15 16  1  0
 16 17  1  0
 11 18  2  0
 18 19  1  0
  4 20  1  0
 20 21  2  0
 21  1  1  0
 19  5  1  0
 18  7  1  0
 17 13  1  0
  1 22  1  0
  2 23  1  0
  3 24  1  0
  9 25  1  0
 13 26  1  0
 14 27  1  0
 14 28  1  0
 15 29  1  0
 15 30  1  0
 16 31  1  0
 16 32  1  0
 17 33  1  0
 17 34  1  0
 19 35  1  0
 20 36  1  0
 21 37  1  0
M  END
>  <meeko>  (8) 
{"is_sidechain": false}

>  <CID>  (8) 
49863194

>  <pose_index>  (8) 
8

>  <docking_score>  (8) 
-7.53

>  <rmsd_to_best_selected>  (8) 
1.4171604479022852

>  <MWT>  (8) 
280.3309999999997

>  <TPSA>  (8) 
63.690000000000005

>  <logP>  (8) 
3.3413000000000013

>  <HBD>  (8) 
1

>  <HBA>  (8) 
4

>  <SMILES>  (8) 
[H]c1nc(OC2([H])C([H])([H])C([H])([H])C([H])([H])C2([H])[H])c2c(n1)nc(-c1c([H])c([H])c([H])c([H])c1[H])n2[H]

$$$$
49863194_pose9
     RDKit          3D

 37 40  0  0  0  0  0  0  0  0999 V2000
    4.9082   40.1822   49.7540 C   0  0  0  0  0  0  0  0  0  0  0  0
    3.9460   40.4214   50.7318 C   0  0  0  0  0  0  0  0  0  0  0  0
    3.9143   41.6471   51.4051 C   0  0  0  0  0  0  0  0  0  0  0  0
    4.8472   42.6518   51.1061 C   0  0  0  0  0  0  0  0  0  0  0  0
    4.8556   43.9550   51.7842 C   0  0  0  0  0  0  0  0  0  0  0  0
    3.7835   44.6597   52.1178 N   0  0  0  0  0  0  0  0  0  0  0  0
    4.2483   45.7955   52.7204 C   0  0  0  0  0  0  0  0  0  0  0  0
    3.4922   46.7913   53.2174 N   0  0  0  0  0  0  0  0  0  0  0  0
    4.2255   47.7784   53.7514 C   0  0  0  0  0  0  0  0  0  0  0  0
    5.5700   47.8695   53.8344 N   0  0  0  0  0  0  0  0  0  0  0  0
    6.2959   46.8567   53.3239 C   0  0  0  0  0  0  0  0  0  0  0  0
    7.6728   46.8563   53.3657 O   0  0  0  0  0  0  0  0  0  0  0  0
    8.2813   48.0105   52.7762 C   0  0  0  0  0  0  0  0  0  0  0  0
    9.0269   48.8384   53.8221 C   0  0  0  0  0  0  0  0  0  0  0  0
   10.3015   48.0455   54.1023 C   0  0  0  0  0  0  0  0  0  0  0  0
   10.5600   47.2022   52.8545 C   0  0  0  0  0  0  0  0  0  0  0  0
    9.4271   47.5292   51.8846 C   0  0  0  0  0  0  0  0  0  0  0  0
    5.6235   45.8010   52.7585 C   0  0  0  0  0  0  0  0  0  0  0  0
    5.9956   44.6331   52.1612 N   0  0  0  0  0  0  0  0  0  0  0  0
    5.8066   42.3941   50.1149 C   0  0  0  0  0  0  0  0  0  0  0  0
    5.8394   41.1691   49.4433 C   0  0  0  0  0  0  0  0  0  0  0  0
    4.9323   39.2160   49.2286 H   0  0  0  0  0  0  0  0  0  0  0  0
    3.2077   39.6432   50.9757 H   0  0  0  0  0  0  0  0  0  0  0  0
    3.1506   41.8252   52.1765 H   0  0  0  0  0  0  0  0  0  0  0  0
    3.6600   48.6212   54.1757 H   0  0  0  0  0  0  0  0  0  0  0  0
    7.4850   48.5785   52.2729 H   0  0  0  0  0  0  0  0  0  0  0  0
    9.2690   49.8362   53.4274 H   0  0  0  0  0  0  0  0  0  0  0  0
    8.4281   49.0010   54.7304 H   0  0  0  0  0  0  0  0  0  0  0  0
   11.1443   48.7290   54.2823 H   0  0  0  0  0  0  0  0  0  0  0  0
   10.1937   47.4154   54.9975 H   0  0  0  0  0  0  0  0  0  0  0  0
   11.5315   47.4646   52.4102 H   0  0  0  0  0  0  0  0  0  0  0  0
   10.5900   46.1287   53.0924 H   0  0  0  0  0  0  0  0  0  0  0  0
    9.7322   48.3203   51.1838 H   0  0  0  0  0  0  0  0  0  0  0  0
    9.1412   46.6626   51.2703 H   0  0  0  0  0  0  0  0  0  0  0  0
    6.9480   44.3305   52.0180 H   0  0  0  0  0  0  0  0  0  0  0  0
    6.5451   43.1692   49.8623 H   0  0  0  0  0  0  0  0  0  0  0  0
    6.6000   40.9849   48.6703 H   0  0  0  0  0  0  0  0  0  0  0  0
  1  2  2  0
  2  3  1  0
  3  4  2  0
  4  5  1  0
  5  6  2  0
  6  7  1  0
  7  8  2  0
  8  9  1  0
  9 10  2  0
 10 11  1  0
 11 12  1  0
 12 13  1  0
 13 14  1  0
 14 15  1  0
 15 16  1  0
 16 17  1  0
 11 18  2  0
 18 19  1  0
  4 20  1  0
 20 21  2  0
 21  1  1  0
 19  5  1  0
 18  7  1  0
 17 13  1  0
  1 22  1  0
  2 23  1  0
  3 24  1  0
  9 25  1  0
 13 26  1  0
 14 27  1  0
 14 28  1  0
 15 29  1  0
 15 30  1  0
 16 31  1  0
 16 32  1  0
 17 33  1  0
 17 34  1  0
 19 35  1  0
 20 36  1  0
 21 37  1  0
M  END
>  <meeko>  (9) 
{"is_sidechain": false}

>  <CID>  (9) 
49863194

>  <pose_index>  (9) 
9

>  <docking_score>  (9) 
-7.496

>  <rmsd_to_best_selected>  (9) 
1.2784345864613214

>  <MWT>  (9) 
280.3309999999997

>  <TPSA>  (9) 
63.690000000000005

>  <logP>  (9) 
3.3413000000000013

>  <HBD>  (9) 
1

>  <HBA>  (9) 
4

>  <SMILES>  (9) 
[H]c1nc(OC2([H])C([H])([H])C([H])([H])C([H])([H])C2([H])[H])c2c(n1)nc(-c1c([H])c([H])c([H])c([H])c1[H])n2[H]

$$$$
49863194_pose10
     RDKit          3D

 37 40  0  0  0  0  0  0  0  0999 V2000
    4.3322   40.5034   49.3574 C   0  0  0  0  0  0  0  0  0  0  0  0
    5.6231   41.0059   49.4975 C   0  0  0  0  0  0  0  0  0  0  0  0
    5.8690   42.0977   50.3377 C   0  0  0  0  0  0  0  0  0  0  0  0
    4.8215   42.7021   51.0498 C   0  0  0  0  0  0  0  0  0  0  0  0
    5.0274   43.8500   51.9435 C   0  0  0  0  0  0  0  0  0  0  0  0
    4.0755   44.5050   52.5910 N   0  0  0  0  0  0  0  0  0  0  0  0
    4.7057   45.4914   53.2979 C   0  0  0  0  0  0  0  0  0  0  0  0
    4.1097   46.3920   54.0997 N   0  0  0  0  0  0  0  0  0  0  0  0
    4.9829   47.2374   54.6630 C   0  0  0  0  0  0  0  0  0  0  0  0
    6.3239   47.2758   54.5151 N   0  0  0  0  0  0  0  0  0  0  0  0
    6.8881   46.3618   53.7025 C   0  0  0  0  0  0  0  0  0  0  0  0
    8.2476   46.3161   53.4914 O   0  0  0  0  0  0  0  0  0  0  0  0
    8.6995   47.1015   52.3806 C   0  0  0  0  0  0  0  0  0  0  0  0
    8.3175   48.5705   52.5512 C   0  0  0  0  0  0  0  0  0  0  0  0
    9.2926   49.1024   53.5985 C   0  0  0  0  0  0  0  0  0  0  0  0
   10.5230   48.1974   53.5314 C   0  0  0  0  0  0  0  0  0  0  0  0
   10.2248   47.1662   52.4459 C   0  0  0  0  0  0  0  0  0  0  0  0
    6.0634   45.4530   53.0834 C   0  0  0  0  0  0  0  0  0  0  0  0
    6.2550   44.4124   52.2232 N   0  0  0  0  0  0  0  0  0  0  0  0
    3.5277   42.1805   50.8982 C   0  0  0  0  0  0  0  0  0  0  0  0
    3.2828   41.0900   50.0594 C   0  0  0  0  0  0  0  0  0  0  0  0
    4.1422   39.6463   48.6946 H   0  0  0  0  0  0  0  0  0  0  0  0
    6.4538   40.5425   48.9451 H   0  0  0  0  0  0  0  0  0  0  0  0
    6.8931   42.4858   50.4410 H   0  0  0  0  0  0  0  0  0  0  0  0
    4.5519   47.9973   55.3314 H   0  0  0  0  0  0  0  0  0  0  0  0
    8.2751   46.6543   51.4696 H   0  0  0  0  0  0  0  0  0  0  0  0
    8.4323   49.1145   51.6020 H   0  0  0  0  0  0  0  0  0  0  0  0
    7.2681   48.6962   52.8561 H   0  0  0  0  0  0  0  0  0  0  0  0
    9.5703   50.1416   53.3687 H   0  0  0  0  0  0  0  0  0  0  0  0
    8.8449   49.0976   54.6033 H   0  0  0  0  0  0  0  0  0  0  0  0
   11.4154   48.7838   53.2674 H   0  0  0  0  0  0  0  0  0  0  0  0
   10.7246   47.7173   54.5003 H   0  0  0  0  0  0  0  0  0  0  0  0
   10.6411   47.4883   51.4800 H   0  0  0  0  0  0  0  0  0  0  0  0
   10.6736   46.1868   52.6678 H   0  0  0  0  0  0  0  0  0  0  0  0
    7.1470   44.1168   51.8560 H   0  0  0  0  0  0  0  0  0  0  0  0
    2.6924   42.6377   51.4488 H   0  0  0  0  0  0  0  0  0  0  0  0
    2.2615   40.6952   49.9539 H   0  0  0  0  0  0  0  0  0  0  0  0
  1  2  2  0
  2  3  1  0
  3  4  2  0
  4  5  1  0
  5  6  2  0
  6  7  1  0
  7  8  2  0
  8  9  1  0
  9 10  2  0
 10 11  1  0
 11 12  1  0
 12 13  1  0
 13 14  1  0
 14 15  1  0
 15 16  1  0
 16 17  1  0
 11 18  2  0
 18 19  1  0
  4 20  1  0
 20 21  2  0
 21  1  1  0
 19  5  1  0
 18  7  1  0
 17 13  1  0
  1 22  1  0
  2 23  1  0
  3 24  1  0
  9 25  1  0
 13 26  1  0
 14 27  1  0
 14 28  1  0
 15 29  1  0
 15 30  1  0
 16 31  1  0
 16 32  1  0
 17 33  1  0
 17 34  1  0
 19 35  1  0
 20 36  1  0
 21 37  1  0
M  END
>  <meeko>  (10) 
{"is_sidechain": false}

>  <CID>  (10) 
49863194

>  <pose_index>  (10) 
10

>  <docking_score>  (10) 
-7.415

>  <rmsd_to_best_selected>  (10) 
1.7001005943477414

>  <MWT>  (10) 
280.3309999999997

>  <TPSA>  (10) 
63.690000000000005

>  <logP>  (10) 
3.3413000000000013

>  <HBD>  (10) 
1

>  <HBA>  (10) 
4

>  <SMILES>  (10) 
[H]c1nc(OC2([H])C([H])([H])C([H])([H])C([H])([H])C2([H])[H])c2c(n1)nc(-c1c([H])c([H])c([H])c([H])c1[H])n2[H]

$$$$
