5329560_pose3
     RDKit          3D

 49 52  0  0  0  0  0  0  0  0999 V2000
    9.9266   48.2668   55.5476 C   0  0  0  0  0  0  0  0  0  0  0  0
   10.0590   48.7889   54.2312 O   0  0  0  0  0  0  0  0  0  0  0  0
    9.5373   48.0366   53.2165 C   0  0  0  0  0  0  0  0  0  0  0  0
    8.6371   48.4720   52.2482 C   0  0  0  0  0  0  0  0  0  0  0  0
    8.1798   47.5902   51.2572 C   0  0  0  0  0  0  0  0  0  0  0  0
    8.6059   46.2603   51.2088 C   0  0  0  0  0  0  0  0  0  0  0  0
    8.1833   45.3355   50.2479 N   0  0  0  0  0  0  0  0  0  0  0  0
    7.1164   44.4409   50.1605 C   0  0  0  0  0  0  0  0  0  0  0  0
    5.9704   44.9140   50.7022 N   0  0  0  0  0  0  0  0  0  0  0  0
    4.8628   44.1512   50.6852 C   0  0  0  0  0  0  0  0  0  0  0  0
    3.6755   44.5719   51.2393 O   0  0  0  0  0  0  0  0  0  0  0  0
    3.7622   45.6745   52.1439 C   0  0  0  0  0  0  0  0  0  0  0  0
    3.8812   45.1626   53.5897 C   0  0  0  0  0  0  0  0  0  0  0  0
    4.8907   45.9987   54.4008 C   0  0  0  0  0  0  0  0  0  0  0  0
    4.6441   45.8757   55.8998 C   0  0  0  0  0  0  0  0  0  0  0  0
    3.2629   46.4064   56.2880 C   0  0  0  0  0  0  0  0  0  0  0  0
    2.2288   46.2877   55.1664 C   0  0  0  0  0  0  0  0  0  0  0  0
    2.5013   45.0855   54.2716 C   0  0  0  0  0  0  0  0  0  0  0  0
    4.9525   42.9076   50.1175 C   0  0  0  0  0  0  0  0  0  0  0  0
    4.0903   41.8700   49.9217 N   0  0  0  0  0  0  0  0  0  0  0  0
    4.7865   40.8790   49.2830 C   0  0  0  0  0  0  0  0  0  0  0  0
    6.0373   41.2264   49.0660 N   0  0  0  0  0  0  0  0  0  0  0  0
    6.1499   42.4909   49.5836 C   0  0  0  0  0  0  0  0  0  0  0  0
    7.2593   43.2407   49.5891 N   0  0  0  0  0  0  0  0  0  0  0  0
    9.5120   45.8377   52.1927 C   0  0  0  0  0  0  0  0  0  0  0  0
    9.9711   46.7133   53.1825 C   0  0  0  0  0  0  0  0  0  0  0  0
   10.7441   47.5578   55.7448 H   0  0  0  0  0  0  0  0  0  0  0  0
    9.9722   49.0906   56.2751 H   0  0  0  0  0  0  0  0  0  0  0  0
    8.9610   47.7482   55.6410 H   0  0  0  0  0  0  0  0  0  0  0  0
    8.2822   49.5131   52.2599 H   0  0  0  0  0  0  0  0  0  0  0  0
    7.4692   47.9544   50.5007 H   0  0  0  0  0  0  0  0  0  0  0  0
    8.7339   45.2710   49.4049 H   0  0  0  0  0  0  0  0  0  0  0  0
    4.6479   46.2786   51.8976 H   0  0  0  0  0  0  0  0  0  0  0  0
    2.8539   46.2882   52.0523 H   0  0  0  0  0  0  0  0  0  0  0  0
    4.2763   44.1366   53.5538 H   0  0  0  0  0  0  0  0  0  0  0  0
    5.9082   45.6463   54.1762 H   0  0  0  0  0  0  0  0  0  0  0  0
    4.7693   47.0546   54.1175 H   0  0  0  0  0  0  0  0  0  0  0  0
    4.7134   44.8162   56.1873 H   0  0  0  0  0  0  0  0  0  0  0  0
    5.4031   46.4751   56.4239 H   0  0  0  0  0  0  0  0  0  0  0  0
    2.9020   45.8363   57.1568 H   0  0  0  0  0  0  0  0  0  0  0  0
    3.3777   47.4772   56.5118 H   0  0  0  0  0  0  0  0  0  0  0  0
    1.2294   46.1799   55.6133 H   0  0  0  0  0  0  0  0  0  0  0  0
    2.2891   47.1954   54.5479 H   0  0  0  0  0  0  0  0  0  0  0  0
    2.4601   44.1726   54.8839 H   0  0  0  0  0  0  0  0  0  0  0  0
    1.7363   45.0750   53.4812 H   0  0  0  0  0  0  0  0  0  0  0  0
    3.1182   41.8417   50.1987 H   0  0  0  0  0  0  0  0  0  0  0  0
    4.3537   39.9117   48.9878 H   0  0  0  0  0  0  0  0  0  0  0  0
    9.8687   44.7972   52.1859 H   0  0  0  0  0  0  0  0  0  0  0  0
   10.6814   46.3534   53.9414 H   0  0  0  0  0  0  0  0  0  0  0  0
  1  2  1  0
  2  3  1  0
  3  4  2  0
  4  5  1  0
  5  6  2  0
  6  7  1  0
  7  8  1  0
  8  9  2  0
  9 10  1  0
 10 11  1  0
 11 12  1  0
 12 13  1  0
 13 14  1  0
 14 15  1  0
 15 16  1  0
 16 17  1  0
 17 18  1  0
 10 19  2  0
 19 20  1  0
 20 21  1  0
 21 22  2  0
 22 23  1  0
 23 24  2  0
  6 25  1  0
 25 26  2  0
 26  3  1  0
 24  8  1  0
 18 13  1  0
 23 19  1  0
  1 27  1  0
  1 28  1  0
  1 29  1  0
  4 30  1  0
  5 31  1  0
  7 32  1  0
 12 33  1  0
 12 34  1  0
 13 35  1  0
 14 36  1  0
 14 37  1  0
 15 38  1  0
 15 39  1  0
 16 40  1  0
 16 41  1  0
 17 42  1  0
 17 43  1  0
 18 44  1  0
 18 45  1  0
 20 46  1  0
 21 47  1  0
 25 48  1  0
 26 49  1  0
M  END
>  <meeko>  (1) 
{"is_sidechain": false}

>  <CID>  (1) 
5329560

>  <pose_index>  (1) 
3

>  <docking_score>  (1) 
-8.894

>  <rmsd_to_best_selected>  (1) 
1.9635805044996166

>  <MWT>  (1) 
353.42599999999965

>  <TPSA>  (1) 
84.95

>  <logP>  (1) 
4.064200000000002

>  <HBD>  (1) 
2

>  <HBA>  (1) 
6

>  <SMILES>  (1) 
[H]c1c([H])c(N([H])c2nc(OC([H])([H])C3([H])C([H])([H])C([H])([H])C([H])([H])C([H])([H])C3([H])[H])c3c(n2)nc([H])n3[H])c([H])c([H])c1OC([H])([H])[H]

$$$$
5329560_pose1
     RDKit          3D

 49 52  0  0  0  0  0  0  0  0999 V2000
   11.0800   47.4920   56.2410 C   0  0  0  0  0  0  0  0  0  0  0  0
    9.9020   48.0460   55.6680 O   0  0  0  0  0  0  0  0  0  0  0  0
    9.4700   47.4930   54.4960 C   0  0  0  0  0  0  0  0  0  0  0  0
   10.2710   46.9180   53.5130 C   0  0  0  0  0  0  0  0  0  0  0  0
    9.6940   46.3840   52.3510 C   0  0  0  0  0  0  0  0  0  0  0  0
    8.3120   46.4100   52.1420 C   0  0  0  0  0  0  0  0  0  0  0  0
    7.6800   45.8960   51.0050 N   0  0  0  0  0  0  0  0  0  0  0  0
    6.8680   44.7890   50.7600 C   0  0  0  0  0  0  0  0  0  0  0  0
    5.8690   44.6430   51.6600 N   0  0  0  0  0  0  0  0  0  0  0  0
    5.0100   43.6140   51.5410 C   0  0  0  0  0  0  0  0  0  0  0  0
    3.9900   43.4040   52.4380 O   0  0  0  0  0  0  0  0  0  0  0  0
    2.7920   44.1510   52.2110 C   0  0  0  0  0  0  0  0  0  0  0  0
    2.5820   45.1680   53.3460 C   0  0  0  0  0  0  0  0  0  0  0  0
    3.6400   44.9990   54.4540 C   0  0  0  0  0  0  0  0  0  0  0  0
    3.7910   46.2680   55.2830 C   0  0  0  0  0  0  0  0  0  0  0  0
    4.2710   47.4440   54.4300 C   0  0  0  0  0  0  0  0  0  0  0  0
    3.8530   47.3410   52.9630 C   0  0  0  0  0  0  0  0  0  0  0  0
    2.5260   46.6090   52.8030 C   0  0  0  0  0  0  0  0  0  0  0  0
    5.1980   42.7450   50.4990 C   0  0  0  0  0  0  0  0  0  0  0  0
    4.5730   41.6170   50.0570 N   0  0  0  0  0  0  0  0  0  0  0  0
    5.2420   41.1930   48.9410 C   0  0  0  0  0  0  0  0  0  0  0  0
    6.2540   41.9840   48.6500 N   0  0  0  0  0  0  0  0  0  0  0  0
    6.2340   42.9550   49.6180 C   0  0  0  0  0  0  0  0  0  0  0  0
    7.0930   43.9770   49.7210 N   0  0  0  0  0  0  0  0  0  0  0  0
    7.5200   46.9950   53.1420 C   0  0  0  0  0  0  0  0  0  0  0  0
    8.0920   47.5290   54.3030 C   0  0  0  0  0  0  0  0  0  0  0  0
   11.0056   47.5270   57.3379 H   0  0  0  0  0  0  0  0  0  0  0  0
   11.1905   46.4475   55.9141 H   0  0  0  0  0  0  0  0  0  0  0  0
   11.9550   48.0730   55.9141 H   0  0  0  0  0  0  0  0  0  0  0  0
   11.3621   46.8822   53.6482 H   0  0  0  0  0  0  0  0  0  0  0  0
   10.3444   45.9342   51.5863 H   0  0  0  0  0  0  0  0  0  0  0  0
    7.7980   46.4120   50.1460 H   0  0  0  0  0  0  0  0  0  0  0  0
    2.8724   44.6858   51.2531 H   0  0  0  0  0  0  0  0  0  0  0  0
    1.9363   43.4604   52.1825 H   0  0  0  0  0  0  0  0  0  0  0  0
    1.6046   44.9637   53.8074 H   0  0  0  0  0  0  0  0  0  0  0  0
    3.3357   44.1745   55.1155 H   0  0  0  0  0  0  0  0  0  0  0  0
    4.6070   44.7828   53.9764 H   0  0  0  0  0  0  0  0  0  0  0  0
    2.8171   46.5227   55.7265 H   0  0  0  0  0  0  0  0  0  0  0  0
    4.5418   46.0810   56.0649 H   0  0  0  0  0  0  0  0  0  0  0  0
    3.8521   48.3714   54.8476 H   0  0  0  0  0  0  0  0  0  0  0  0
    5.3707   47.4359   54.4555 H   0  0  0  0  0  0  0  0  0  0  0  0
    3.7523   48.3553   52.5493 H   0  0  0  0  0  0  0  0  0  0  0  0
    4.6253   46.7702   52.4266 H   0  0  0  0  0  0  0  0  0  0  0  0
    1.7487   47.1628   53.3499 H   0  0  0  0  0  0  0  0  0  0  0  0
    2.3002   46.5542   51.7278 H   0  0  0  0  0  0  0  0  0  0  0  0
    3.7660   41.1780   50.4790 H   0  0  0  0  0  0  0  0  0  0  0  0
    4.9681   40.3010   48.3585 H   0  0  0  0  0  0  0  0  0  0  0  0
    6.4285   47.0348   53.0111 H   0  0  0  0  0  0  0  0  0  0  0  0
    7.4462   47.9813   55.0700 H   0  0  0  0  0  0  0  0  0  0  0  0
  1  2  1  0
  2  3  1  0
  3  4  2  0
  4  5  1  0
  5  6  2  0
  6  7  1  0
  7  8  1  0
  8  9  2  0
  9 10  1  0
 10 11  1  0
 11 12  1  0
 12 13  1  0
 13 14  1  0
 14 15  1  0
 15 16  1  0
 16 17  1  0
 17 18  1  0
 10 19  2  0
 19 20  1  0
 20 21  1  0
 21 22  2  0
 22 23  1  0
 23 24  2  0
  6 25  1  0
 25 26  2  0
 26  3  1  0
 24  8  1  0
 18 13  1  0
 23 19  1  0
  1 27  1  0
  1 28  1  0
  1 29  1  0
  4 30  1  0
  5 31  1  0
  7 32  1  0
 12 33  1  0
 12 34  1  0
 13 35  1  0
 14 36  1  0
 14 37  1  0
 15 38  1  0
 15 39  1  0
 16 40  1  0
 16 41  1  0
 17 42  1  0
 17 43  1  0
 18 44  1  0
 18 45  1  0
 20 46  1  0
 21 47  1  0
 25 48  1  0
 26 49  1  0
M  END
>  <meeko>  (2) 
{"is_sidechain": false}

>  <CID>  (2) 
5329560

>  <pose_index>  (2) 
1

>  <docking_score>  (2) 
-9.08

>  <rmsd_to_best_selected>  (2) 
0.0

>  <MWT>  (2) 
353.42599999999965

>  <TPSA>  (2) 
84.95

>  <logP>  (2) 
4.064200000000002

>  <HBD>  (2) 
2

>  <HBA>  (2) 
6

>  <SMILES>  (2) 
[H]c1c([H])c(N([H])c2nc(OC([H])([H])C3([H])C([H])([H])C([H])([H])C([H])([H])C([H])([H])C3([H])[H])c3c(n2)nc([H])n3[H])c([H])c([H])c1OC([H])([H])[H]

$$$$
5329560_pose2
     RDKit          3D

 49 52  0  0  0  0  0  0  0  0999 V2000
    8.5287   48.5260   55.6870 C   0  0  0  0  0  0  0  0  0  0  0  0
    9.6800   48.0378   55.0095 O   0  0  0  0  0  0  0  0  0  0  0  0
    9.4609   47.2425   53.9204 C   0  0  0  0  0  0  0  0  0  0  0  0
   10.3578   46.3275   53.3750 C   0  0  0  0  0  0  0  0  0  0  0  0
   10.0020   45.5709   52.2485 C   0  0  0  0  0  0  0  0  0  0  0  0
    8.7520   45.7083   51.6401 C   0  0  0  0  0  0  0  0  0  0  0  0
    8.3421   44.9841   50.5148 N   0  0  0  0  0  0  0  0  0  0  0  0
    7.1973   44.2577   50.1892 C   0  0  0  0  0  0  0  0  0  0  0  0
    6.2483   44.2863   51.1525 N   0  0  0  0  0  0  0  0  0  0  0  0
    5.0909   43.6253   50.9665 C   0  0  0  0  0  0  0  0  0  0  0  0
    4.0997   43.6015   51.9195 O   0  0  0  0  0  0  0  0  0  0  0  0
    4.4794   44.0312   53.2295 C   0  0  0  0  0  0  0  0  0  0  0  0
    3.5878   45.2019   53.6791 C   0  0  0  0  0  0  0  0  0  0  0  0
    3.2751   45.1216   55.1873 C   0  0  0  0  0  0  0  0  0  0  0  0
    2.8746   46.4800   55.7492 C   0  0  0  0  0  0  0  0  0  0  0  0
    4.0064   47.4997   55.6163 C   0  0  0  0  0  0  0  0  0  0  0  0
    4.9363   47.2253   54.4334 C   0  0  0  0  0  0  0  0  0  0  0  0
    4.2013   46.5570   53.2781 C   0  0  0  0  0  0  0  0  0  0  0  0
    4.9319   42.9362   49.7932 C   0  0  0  0  0  0  0  0  0  0  0  0
    3.9469   42.1631   49.2526 N   0  0  0  0  0  0  0  0  0  0  0  0
    4.3864   41.7481   48.0244 C   0  0  0  0  0  0  0  0  0  0  0  0
    5.5906   42.2097   47.7567 N   0  0  0  0  0  0  0  0  0  0  0  0
    5.9381   42.9522   48.8550 C   0  0  0  0  0  0  0  0  0  0  0  0
    7.0922   43.6102   49.0246 N   0  0  0  0  0  0  0  0  0  0  0  0
    7.8610   46.6351   52.2004 C   0  0  0  0  0  0  0  0  0  0  0  0
    8.2103   47.3917   53.3250 C   0  0  0  0  0  0  0  0  0  0  0  0
    7.8124   47.7039   55.8319 H   0  0  0  0  0  0  0  0  0  0  0  0
    8.8238   48.9320   56.6658 H   0  0  0  0  0  0  0  0  0  0  0  0
    8.0594   49.3198   55.0873 H   0  0  0  0  0  0  0  0  0  0  0  0
   11.3508   46.1971   53.8301 H   0  0  0  0  0  0  0  0  0  0  0  0
   10.7246   44.8523   51.8343 H   0  0  0  0  0  0  0  0  0  0  0  0
    8.9777   44.9627   49.7316 H   0  0  0  0  0  0  0  0  0  0  0  0
    4.3650   43.1947   53.9346 H   0  0  0  0  0  0  0  0  0  0  0  0
    5.5280   44.3629   53.2106 H   0  0  0  0  0  0  0  0  0  0  0  0
    2.6262   45.1192   53.1514 H   0  0  0  0  0  0  0  0  0  0  0  0
    2.4486   44.4127   55.3435 H   0  0  0  0  0  0  0  0  0  0  0  0
    4.1833   44.7869   55.7100 H   0  0  0  0  0  0  0  0  0  0  0  0
    1.9957   46.8486   55.1999 H   0  0  0  0  0  0  0  0  0  0  0  0
    2.6462   46.3566   56.8181 H   0  0  0  0  0  0  0  0  0  0  0  0
    3.5628   48.4980   55.4867 H   0  0  0  0  0  0  0  0  0  0  0  0
    4.6147   47.4302   56.5301 H   0  0  0  0  0  0  0  0  0  0  0  0
    5.3575   48.1792   54.0830 H   0  0  0  0  0  0  0  0  0  0  0  0
    5.7297   46.5435   54.7736 H   0  0  0  0  0  0  0  0  0  0  0  0
    3.3947   47.2238   52.9394 H   0  0  0  0  0  0  0  0  0  0  0  0
    4.9325   46.3709   52.4777 H   0  0  0  0  0  0  0  0  0  0  0  0
    3.0600   41.9410   49.6824 H   0  0  0  0  0  0  0  0  0  0  0  0
    3.8053   41.1077   47.3445 H   0  0  0  0  0  0  0  0  0  0  0  0
    6.8679   46.7702   51.7470 H   0  0  0  0  0  0  0  0  0  0  0  0
    7.4905   48.1110   53.7428 H   0  0  0  0  0  0  0  0  0  0  0  0
  1  2  1  0
  2  3  1  0
  3  4  2  0
  4  5  1  0
  5  6  2  0
  6  7  1  0
  7  8  1  0
  8  9  2  0
  9 10  1  0
 10 11  1  0
 11 12  1  0
 12 13  1  0
 13 14  1  0
 14 15  1  0
 15 16  1  0
 16 17  1  0
 17 18  1  0
 10 19  2  0
 19 20  1  0
 20 21  1  0
 21 22  2  0
 22 23  1  0
 23 24  2  0
  6 25  1  0
 25 26  2  0
 26  3  1  0
 24  8  1  0
 18 13  1  0
 23 19  1  0
  1 27  1  0
  1 28  1  0
  1 29  1  0
  4 30  1  0
  5 31  1  0
  7 32  1  0
 12 33  1  0
 12 34  1  0
 13 35  1  0
 14 36  1  0
 14 37  1  0
 15 38  1  0
 15 39  1  0
 16 40  1  0
 16 41  1  0
 17 42  1  0
 17 43  1  0
 18 44  1  0
 18 45  1  0
 20 46  1  0
 21 47  1  0
 25 48  1  0
 26 49  1  0
M  END
>  <meeko>  (3) 
{"is_sidechain": false}

>  <CID>  (3) 
5329560

>  <pose_index>  (3) 
2

>  <docking_score>  (3) 
-8.957

>  <rmsd_to_best_selected>  (3) 
1.734470051996953

>  <MWT>  (3) 
353.42599999999965

>  <TPSA>  (3) 
84.95

>  <logP>  (3) 
4.064200000000002

>  <HBD>  (3) 
2

>  <HBA>  (3) 
6

>  <SMILES>  (3) 
[H]c1c([H])c(N([H])c2nc(OC([H])([H])C3([H])C([H])([H])C([H])([H])C([H])([H])C([H])([H])C3([H])[H])c3c(n2)nc([H])n3[H])c([H])c([H])c1OC([H])([H])[H]

$$$$
5329560_pose8
     RDKit          3D

 49 52  0  0  0  0  0  0  0  0999 V2000
    8.7027   48.6877   55.4674 C   0  0  0  0  0  0  0  0  0  0  0  0
    9.6945   48.5121   54.4629 O   0  0  0  0  0  0  0  0  0  0  0  0
    9.3883   47.6586   53.4402 C   0  0  0  0  0  0  0  0  0  0  0  0
   10.2958   47.0380   52.5879 C   0  0  0  0  0  0  0  0  0  0  0  0
    9.8440   46.1802   51.5735 C   0  0  0  0  0  0  0  0  0  0  0  0
    8.4825   45.9233   51.3854 C   0  0  0  0  0  0  0  0  0  0  0  0
    7.9730   45.0803   50.3914 N   0  0  0  0  0  0  0  0  0  0  0  0
    6.7099   44.5606   50.1120 C   0  0  0  0  0  0  0  0  0  0  0  0
    5.8624   44.6058   51.1650 N   0  0  0  0  0  0  0  0  0  0  0  0
    4.6087   44.1349   51.0309 C   0  0  0  0  0  0  0  0  0  0  0  0
    3.7113   44.1359   52.0727 O   0  0  0  0  0  0  0  0  0  0  0  0
    4.1615   43.5329   53.2879 C   0  0  0  0  0  0  0  0  0  0  0  0
    3.8354   44.4474   54.4829 C   0  0  0  0  0  0  0  0  0  0  0  0
    5.0194   44.5290   55.4659 C   0  0  0  0  0  0  0  0  0  0  0  0
    4.9449   45.7822   56.3293 C   0  0  0  0  0  0  0  0  0  0  0  0
    5.0241   47.0540   55.4827 C   0  0  0  0  0  0  0  0  0  0  0  0
    4.4827   46.8741   54.0637 C   0  0  0  0  0  0  0  0  0  0  0  0
    3.3668   45.8369   54.0114 C   0  0  0  0  0  0  0  0  0  0  0  0
    4.2489   43.6173   49.8152 C   0  0  0  0  0  0  0  0  0  0  0  0
    3.1180   43.0544   49.3012 N   0  0  0  0  0  0  0  0  0  0  0  0
    3.3831   42.7298   47.9982 C   0  0  0  0  0  0  0  0  0  0  0  0
    4.6136   43.0516   47.6577 N   0  0  0  0  0  0  0  0  0  0  0  0
    5.1610   43.6050   48.7854 C   0  0  0  0  0  0  0  0  0  0  0  0
    6.4101   44.0746   48.9032 N   0  0  0  0  0  0  0  0  0  0  0  0
    7.5820   46.5593   52.2526 C   0  0  0  0  0  0  0  0  0  0  0  0
    8.0282   47.4156   53.2660 C   0  0  0  0  0  0  0  0  0  0  0  0
    8.2904   47.7080   55.7508 H   0  0  0  0  0  0  0  0  0  0  0  0
    9.1547   49.1644   56.3497 H   0  0  0  0  0  0  0  0  0  0  0  0
    7.8959   49.3263   55.0784 H   0  0  0  0  0  0  0  0  0  0  0  0
   11.3737   47.2206   52.7100 H   0  0  0  0  0  0  0  0  0  0  0  0
   10.5781   45.6986   50.9108 H   0  0  0  0  0  0  0  0  0  0  0  0
    8.6219   44.7592   49.6898 H   0  0  0  0  0  0  0  0  0  0  0  0
    3.6575   42.5644   53.4223 H   0  0  0  0  0  0  0  0  0  0  0  0
    5.2499   43.3832   53.2346 H   0  0  0  0  0  0  0  0  0  0  0  0
    2.9960   43.9992   55.0348 H   0  0  0  0  0  0  0  0  0  0  0  0
    5.0031   43.6439   56.1188 H   0  0  0  0  0  0  0  0  0  0  0  0
    5.9504   44.5682   54.8813 H   0  0  0  0  0  0  0  0  0  0  0  0
    3.9935   45.7794   56.8814 H   0  0  0  0  0  0  0  0  0  0  0  0
    5.8001   45.7751   57.0210 H   0  0  0  0  0  0  0  0  0  0  0  0
    4.4403   47.8417   55.9814 H   0  0  0  0  0  0  0  0  0  0  0  0
    6.0881   47.3185   55.3931 H   0  0  0  0  0  0  0  0  0  0  0  0
    4.0901   47.8379   53.7075 H   0  0  0  0  0  0  0  0  0  0  0  0
    5.3066   46.5228   53.4252 H   0  0  0  0  0  0  0  0  0  0  0  0
    2.5432   46.1709   54.6594 H   0  0  0  0  0  0  0  0  0  0  0  0
    3.0431   45.7446   52.9641 H   0  0  0  0  0  0  0  0  0  0  0  0
    2.2475   42.9072   49.7935 H   0  0  0  0  0  0  0  0  0  0  0  0
    2.6575   42.2582   47.3191 H   0  0  0  0  0  0  0  0  0  0  0  0
    6.5030   46.3815   52.1340 H   0  0  0  0  0  0  0  0  0  0  0  0
    7.2982   47.9008   53.9306 H   0  0  0  0  0  0  0  0  0  0  0  0
  1  2  1  0
  2  3  1  0
  3  4  2  0
  4  5  1  0
  5  6  2  0
  6  7  1  0
  7  8  1  0
  8  9  2  0
  9 10  1  0
 10 11  1  0
 11 12  1  0
 12 13  1  0
 13 14  1  0
 14 15  1  0
 15 16  1  0
 16 17  1  0
 17 18  1  0
 10 19  2  0
 19 20  1  0
 20 21  1  0
 21 22  2  0
 22 23  1  0
 23 24  2  0
  6 25  1  0
 25 26  2  0
 26  3  1  0
 24  8  1  0
 18 13  1  0
 23 19  1  0
  1 27  1  0
  1 28  1  0
  1 29  1  0
  4 30  1  0
  5 31  1  0
  7 32  1  0
 12 33  1  0
 12 34  1  0
 13 35  1  0
 14 36  1  0
 14 37  1  0
 15 38  1  0
 15 39  1  0
 16 40  1  0
 16 41  1  0
 17 42  1  0
 17 43  1  0
 18 44  1  0
 18 45  1  0
 20 46  1  0
 21 47  1  0
 25 48  1  0
 26 49  1  0
M  END
>  <meeko>  (4) 
{"is_sidechain": false}

>  <CID>  (4) 
5329560

>  <pose_index>  (4) 
8

>  <docking_score>  (4) 
-8.501

>  <rmsd_to_best_selected>  (4) 
1.5727849537174685

>  <MWT>  (4) 
353.42599999999965

>  <TPSA>  (4) 
84.95

>  <logP>  (4) 
4.064200000000002

>  <HBD>  (4) 
2

>  <HBA>  (4) 
6

>  <SMILES>  (4) 
[H]c1c([H])c(N([H])c2nc(OC([H])([H])C3([H])C([H])([H])C([H])([H])C([H])([H])C([H])([H])C3([H])[H])c3c(n2)nc([H])n3[H])c([H])c([H])c1OC([H])([H])[H]

$$$$
5329560_pose9
     RDKit          3D

 49 52  0  0  0  0  0  0  0  0999 V2000
   10.1485   49.3488   54.6862 C   0  0  0  0  0  0  0  0  0  0  0  0
    9.2922   48.2520   54.9810 O   0  0  0  0  0  0  0  0  0  0  0  0
    8.9588   47.4350   53.9383 C   0  0  0  0  0  0  0  0  0  0  0  0
    9.0661   46.0474   53.9136 C   0  0  0  0  0  0  0  0  0  0  0  0
    8.6854   45.3268   52.7706 C   0  0  0  0  0  0  0  0  0  0  0  0
    8.1925   45.9692   51.6313 C   0  0  0  0  0  0  0  0  0  0  0  0
    7.7999   45.3054   50.4643 N   0  0  0  0  0  0  0  0  0  0  0  0
    6.6549   44.6081   50.0794 C   0  0  0  0  0  0  0  0  0  0  0  0
    5.6657   44.6451   51.0019 N   0  0  0  0  0  0  0  0  0  0  0  0
    4.5044   44.0106   50.7570 C   0  0  0  0  0  0  0  0  0  0  0  0
    3.4728   43.9961   51.6660 O   0  0  0  0  0  0  0  0  0  0  0  0
    3.8497   43.8821   53.0407 C   0  0  0  0  0  0  0  0  0  0  0  0
    3.8156   45.2658   53.7128 C   0  0  0  0  0  0  0  0  0  0  0  0
    2.8676   45.2753   54.9287 C   0  0  0  0  0  0  0  0  0  0  0  0
    3.2066   46.4058   55.8935 C   0  0  0  0  0  0  0  0  0  0  0  0
    4.6153   46.2506   56.4695 C   0  0  0  0  0  0  0  0  0  0  0  0
    5.5761   45.5118   55.5363 C   0  0  0  0  0  0  0  0  0  0  0  0
    5.2351   45.7482   54.0703 C   0  0  0  0  0  0  0  0  0  0  0  0
    4.3819   43.3408   49.5685 C   0  0  0  0  0  0  0  0  0  0  0  0
    3.4055   42.5963   48.9754 N   0  0  0  0  0  0  0  0  0  0  0  0
    3.8886   42.1867   47.7620 C   0  0  0  0  0  0  0  0  0  0  0  0
    5.1124   42.6260   47.5528 N   0  0  0  0  0  0  0  0  0  0  0  0
    5.4278   43.3462   48.6754 C   0  0  0  0  0  0  0  0  0  0  0  0
    6.5874   43.9775   48.9030 N   0  0  0  0  0  0  0  0  0  0  0  0
    8.0919   47.3683   51.6730 C   0  0  0  0  0  0  0  0  0  0  0  0
    8.4699   48.0908   52.8109 C   0  0  0  0  0  0  0  0  0  0  0  0
   10.0349   49.6288   53.6285 H   0  0  0  0  0  0  0  0  0  0  0  0
    9.8804   50.2048   55.3229 H   0  0  0  0  0  0  0  0  0  0  0  0
   11.1926   49.0611   54.8793 H   0  0  0  0  0  0  0  0  0  0  0  0
    9.4512   45.5127   54.7944 H   0  0  0  0  0  0  0  0  0  0  0  0
    8.7771   44.2306   52.7716 H   0  0  0  0  0  0  0  0  0  0  0  0
    8.4515   45.3153   49.6948 H   0  0  0  0  0  0  0  0  0  0  0  0
    3.1483   43.2095   53.5560 H   0  0  0  0  0  0  0  0  0  0  0  0
    4.8701   43.4760   53.1025 H   0  0  0  0  0  0  0  0  0  0  0  0
    3.4081   45.9861   52.9882 H   0  0  0  0  0  0  0  0  0  0  0  0
    1.8342   45.4053   54.5749 H   0  0  0  0  0  0  0  0  0  0  0  0
    2.9820   44.3204   55.4626 H   0  0  0  0  0  0  0  0  0  0  0  0
    3.1437   47.3640   55.3570 H   0  0  0  0  0  0  0  0  0  0  0  0
    2.4887   46.3743   56.7264 H   0  0  0  0  0  0  0  0  0  0  0  0
    5.0233   47.2528   56.6675 H   0  0  0  0  0  0  0  0  0  0  0  0
    4.5265   45.6489   57.3861 H   0  0  0  0  0  0  0  0  0  0  0  0
    6.5998   45.8671   55.7254 H   0  0  0  0  0  0  0  0  0  0  0  0
    5.4879   44.4341   55.7383 H   0  0  0  0  0  0  0  0  0  0  0  0
    5.3055   46.8257   53.8604 H   0  0  0  0  0  0  0  0  0  0  0  0
    5.9484   45.1720   53.4626 H   0  0  0  0  0  0  0  0  0  0  0  0
    2.4960   42.3876   49.3637 H   0  0  0  0  0  0  0  0  0  0  0  0
    3.3243   41.5671   47.0495 H   0  0  0  0  0  0  0  0  0  0  0  0
    7.7084   47.9078   50.7945 H   0  0  0  0  0  0  0  0  0  0  0  0
    8.3799   49.1871   52.8147 H   0  0  0  0  0  0  0  0  0  0  0  0
  1  2  1  0
  2  3  1  0
  3  4  2  0
  4  5  1  0
  5  6  2  0
  6  7  1  0
  7  8  1  0
  8  9  2  0
  9 10  1  0
 10 11  1  0
 11 12  1  0
 12 13  1  0
 13 14  1  0
 14 15  1  0
 15 16  1  0
 16 17  1  0
 17 18  1  0
 10 19  2  0
 19 20  1  0
 20 21  1  0
 21 22  2  0
 22 23  1  0
 23 24  2  0
  6 25  1  0
 25 26  2  0
 26  3  1  0
 24  8  1  0
 18 13  1  0
 23 19  1  0
  1 27  1  0
  1 28  1  0
  1 29  1  0
  4 30  1  0
  5 31  1  0
  7 32  1  0
 12 33  1  0
 12 34  1  0
 13 35  1  0
 14 36  1  0
 14 37  1  0
 15 38  1  0
 15 39  1  0
 16 40  1  0
 16 41  1  0
 17 42  1  0
 17 43  1  0
 18 44  1  0
 18 45  1  0
 20 46  1  0
 21 47  1  0
 25 48  1  0
 26 49  1  0
M  END
>  <meeko>  (5) 
{"is_sidechain": false}

>  <CID>  (5) 
5329560

>  <pose_index>  (5) 
9

>  <docking_score>  (5) 
-8.468

>  <rmsd_to_best_selected>  (5) 
1.8764233910050527

>  <MWT>  (5) 
353.42599999999965

>  <TPSA>  (5) 
84.95

>  <logP>  (5) 
4.064200000000002

>  <HBD>  (5) 
2

>  <HBA>  (5) 
6

>  <SMILES>  (5) 
[H]c1c([H])c(N([H])c2nc(OC([H])([H])C3([H])C([H])([H])C([H])([H])C([H])([H])C([H])([H])C3([H])[H])c3c(n2)nc([H])n3[H])c([H])c([H])c1OC([H])([H])[H]

$$$$
5329560_pose10
     RDKit          3D

 49 52  0  0  0  0  0  0  0  0999 V2000
    9.0579   48.2089   56.0829 C   0  0  0  0  0  0  0  0  0  0  0  0
    9.4215   48.6018   54.7652 O   0  0  0  0  0  0  0  0  0  0  0  0
    9.0040   47.7943   53.7457 C   0  0  0  0  0  0  0  0  0  0  0  0
    9.3433   46.4577   53.5637 C   0  0  0  0  0  0  0  0  0  0  0  0
    8.8409   45.7409   52.4663 C   0  0  0  0  0  0  0  0  0  0  0  0
    7.9934   46.3385   51.5283 C   0  0  0  0  0  0  0  0  0  0  0  0
    7.4641   45.6774   50.4158 N   0  0  0  0  0  0  0  0  0  0  0  0
    6.3115   44.9265   50.1871 C   0  0  0  0  0  0  0  0  0  0  0  0
    5.5412   44.7726   51.2887 N   0  0  0  0  0  0  0  0  0  0  0  0
    4.3971   44.0681   51.2074 C   0  0  0  0  0  0  0  0  0  0  0  0
    3.5859   43.8613   52.2984 O   0  0  0  0  0  0  0  0  0  0  0  0
    4.1989   43.2277   53.4244 C   0  0  0  0  0  0  0  0  0  0  0  0
    4.4008   44.2473   54.5583 C   0  0  0  0  0  0  0  0  0  0  0  0
    5.8612   44.7377   54.6188 C   0  0  0  0  0  0  0  0  0  0  0  0
    5.9725   46.0794   55.3325 C   0  0  0  0  0  0  0  0  0  0  0  0
    5.1993   47.1745   54.5963 C   0  0  0  0  0  0  0  0  0  0  0  0
    4.0052   46.6454   53.8001 C   0  0  0  0  0  0  0  0  0  0  0  0
    3.3949   45.4105   54.4501 C   0  0  0  0  0  0  0  0  0  0  0  0
    4.0672   43.5259   49.9940 C   0  0  0  0  0  0  0  0  0  0  0  0
    3.0370   42.7664   49.5227 N   0  0  0  0  0  0  0  0  0  0  0  0
    3.2758   42.5392   48.1942 C   0  0  0  0  0  0  0  0  0  0  0  0
    4.3959   43.1065   47.7976 N   0  0  0  0  0  0  0  0  0  0  0  0
    4.8971   43.7236   48.9135 C   0  0  0  0  0  0  0  0  0  0  0  0
    6.0346   44.4260   48.9783 N   0  0  0  0  0  0  0  0  0  0  0  0
    7.6629   47.6873   51.7262 C   0  0  0  0  0  0  0  0  0  0  0  0
    8.1616   48.4055   52.8199 C   0  0  0  0  0  0  0  0  0  0  0  0
    8.4589   47.2873   56.0386 H   0  0  0  0  0  0  0  0  0  0  0  0
    9.9667   48.0274   56.6754 H   0  0  0  0  0  0  0  0  0  0  0  0
    8.4667   49.0081   56.5539 H   0  0  0  0  0  0  0  0  0  0  0  0
   10.0091   45.9596   54.2838 H   0  0  0  0  0  0  0  0  0  0  0  0
    9.1204   44.6843   52.3414 H   0  0  0  0  0  0  0  0  0  0  0  0
    7.9912   45.7368   49.5580 H   0  0  0  0  0  0  0  0  0  0  0  0
    3.5524   42.4116   53.7795 H   0  0  0  0  0  0  0  0  0  0  0  0
    5.1773   42.8253   53.1230 H   0  0  0  0  0  0  0  0  0  0  0  0
    4.1979   43.7384   55.5122 H   0  0  0  0  0  0  0  0  0  0  0  0
    6.4654   43.9944   55.1595 H   0  0  0  0  0  0  0  0  0  0  0  0
    6.2248   44.8646   53.5884 H   0  0  0  0  0  0  0  0  0  0  0  0
    5.5660   45.9776   56.3495 H   0  0  0  0  0  0  0  0  0  0  0  0
    7.0338   46.3671   55.3607 H   0  0  0  0  0  0  0  0  0  0  0  0
    4.8307   47.8991   55.3372 H   0  0  0  0  0  0  0  0  0  0  0  0
    5.8926   47.6324   53.8754 H   0  0  0  0  0  0  0  0  0  0  0  0
    3.2391   47.4326   53.7419 H   0  0  0  0  0  0  0  0  0  0  0  0
    4.3599   46.3644   52.7975 H   0  0  0  0  0  0  0  0  0  0  0  0
    3.0515   45.6761   55.4608 H   0  0  0  0  0  0  0  0  0  0  0  0
    2.5604   45.0751   53.8168 H   0  0  0  0  0  0  0  0  0  0  0  0
    2.2470   42.4353   50.0585 H   0  0  0  0  0  0  0  0  0  0  0  0
    2.6136   41.9546   47.5387 H   0  0  0  0  0  0  0  0  0  0  0  0
    6.9989   48.1907   51.0080 H   0  0  0  0  0  0  0  0  0  0  0  0
    7.8856   49.4624   52.9492 H   0  0  0  0  0  0  0  0  0  0  0  0
  1  2  1  0
  2  3  1  0
  3  4  2  0
  4  5  1  0
  5  6  2  0
  6  7  1  0
  7  8  1  0
  8  9  2  0
  9 10  1  0
 10 11  1  0
 11 12  1  0
 12 13  1  0
 13 14  1  0
 14 15  1  0
 15 16  1  0
 16 17  1  0
 17 18  1  0
 10 19  2  0
 19 20  1  0
 20 21  1  0
 21 22  2  0
 22 23  1  0
 23 24  2  0
  6 25  1  0
 25 26  2  0
 26  3  1  0
 24  8  1  0
 18 13  1  0
 23 19  1  0
  1 27  1  0
  1 28  1  0
  1 29  1  0
  4 30  1  0
  5 31  1  0
  7 32  1  0
 12 33  1  0
 12 34  1  0
 13 35  1  0
 14 36  1  0
 14 37  1  0
 15 38  1  0
 15 39  1  0
 16 40  1  0
 16 41  1  0
 17 42  1  0
 17 43  1  0
 18 44  1  0
 18 45  1  0
 20 46  1  0
 21 47  1  0
 25 48  1  0
 26 49  1  0
M  END
>  <meeko>  (6) 
{"is_sidechain": false}

>  <CID>  (6) 
5329560

>  <pose_index>  (6) 
10

>  <docking_score>  (6) 
-8.428

>  <rmsd_to_best_selected>  (6) 
1.7827669445078396

>  <MWT>  (6) 
353.42599999999965

>  <TPSA>  (6) 
84.95

>  <logP>  (6) 
4.064200000000002

>  <HBD>  (6) 
2

>  <HBA>  (6) 
6

>  <SMILES>  (6) 
[H]c1c([H])c(N([H])c2nc(OC([H])([H])C3([H])C([H])([H])C([H])([H])C([H])([H])C([H])([H])C3([H])[H])c3c(n2)nc([H])n3[H])c([H])c([H])c1OC([H])([H])[H]

$$$$
