5329558_pose1
     RDKit          3D

 45 48  0  0  0  0  0  0  0  0999 V2000
    7.9800   43.0930   48.4860 F   0  0  0  0  0  0  0  0  0  0  0  0
    6.9240   43.1180   49.3110 C   0  0  0  0  0  0  0  0  0  0  0  0
    6.5020   44.3250   49.8480 C   0  0  0  0  0  0  0  0  0  0  0  0
    5.4010   44.3470   50.7070 C   0  0  0  0  0  0  0  0  0  0  0  0
    4.7070   43.1680   51.0390 C   0  0  0  0  0  0  0  0  0  0  0  0
    3.6150   43.2620   51.9080 N   0  0  0  0  0  0  0  0  0  0  0  0
    3.3660   43.9700   53.0840 C   0  0  0  0  0  0  0  0  0  0  0  0
    4.4720   44.5450   53.6110 N   0  0  0  0  0  0  0  0  0  0  0  0
    4.3720   45.2580   54.7490 C   0  0  0  0  0  0  0  0  0  0  0  0
    5.4570   45.8890   55.3120 O   0  0  0  0  0  0  0  0  0  0  0  0
    5.9970   46.9780   54.5600 C   0  0  0  0  0  0  0  0  0  0  0  0
    7.3270   46.5740   53.9000 C   0  0  0  0  0  0  0  0  0  0  0  0
    7.2920   46.8990   52.3990 C   0  0  0  0  0  0  0  0  0  0  0  0
    8.6060   46.5410   51.7070 C   0  0  0  0  0  0  0  0  0  0  0  0
    9.7960   47.2140   52.3820 C   0  0  0  0  0  0  0  0  0  0  0  0
    9.8460   46.8920   53.8720 C   0  0  0  0  0  0  0  0  0  0  0  0
    8.5360   47.2460   54.5720 C   0  0  0  0  0  0  0  0  0  0  0  0
    3.1330   45.3810   55.3190 C   0  0  0  0  0  0  0  0  0  0  0  0
    2.6330   46.0100   56.4200 N   0  0  0  0  0  0  0  0  0  0  0  0
    1.2880   45.7540   56.4580 C   0  0  0  0  0  0  0  0  0  0  0  0
    0.9070   45.0040   55.4460 N   0  0  0  0  0  0  0  0  0  0  0  0
    2.0510   44.7680   54.7290 C   0  0  0  0  0  0  0  0  0  0  0  0
    2.1370   44.0470   53.6030 N   0  0  0  0  0  0  0  0  0  0  0  0
    5.1610   41.9660   50.4800 C   0  0  0  0  0  0  0  0  0  0  0  0
    6.2630   41.9390   49.6190 C   0  0  0  0  0  0  0  0  0  0  0  0
    7.0301   45.2574   49.5994 H   0  0  0  0  0  0  0  0  0  0  0  0
    5.0692   45.3054   51.1330 H   0  0  0  0  0  0  0  0  0  0  0  0
    2.8050   42.7010   51.6890 H   0  0  0  0  0  0  0  0  0  0  0  0
    5.2794   47.2687   53.7786 H   0  0  0  0  0  0  0  0  0  0  0  0
    6.1811   47.8221   55.2408 H   0  0  0  0  0  0  0  0  0  0  0  0
    7.4472   45.4886   54.0325 H   0  0  0  0  0  0  0  0  0  0  0  0
    6.4766   46.3283   51.9306 H   0  0  0  0  0  0  0  0  0  0  0  0
    7.1330   47.9818   52.2886 H   0  0  0  0  0  0  0  0  0  0  0  0
    8.7439   45.4503   51.7446 H   0  0  0  0  0  0  0  0  0  0  0  0
    8.5549   46.8943   50.6665 H   0  0  0  0  0  0  0  0  0  0  0  0
   10.7235   46.8602   51.9081 H   0  0  0  0  0  0  0  0  0  0  0  0
    9.6893   48.3027   52.2665 H   0  0  0  0  0  0  0  0  0  0  0  0
   10.0376   45.8161   53.9977 H   0  0  0  0  0  0  0  0  0  0  0  0
   10.6491   47.4918   54.3251 H   0  0  0  0  0  0  0  0  0  0  0  0
    8.5912   46.9135   55.6191 H   0  0  0  0  0  0  0  0  0  0  0  0
    8.3992   48.3356   54.5086 H   0  0  0  0  0  0  0  0  0  0  0  0
    3.1610   46.5610   57.0830 H   0  0  0  0  0  0  0  0  0  0  0  0
    0.6097   46.1292   57.2385 H   0  0  0  0  0  0  0  0  0  0  0  0
    4.6416   41.0271   50.7225 H   0  0  0  0  0  0  0  0  0  0  0  0
    6.6038   40.9861   49.1880 H   0  0  0  0  0  0  0  0  0  0  0  0
  1  2  1  0
  2  3  2  0
  3  4  1  0
  4  5  2  0
  5  6  1  0
  6  7  1  0
  7  8  2  0
  8  9  1  0
  9 10  1  0
 10 11  1  0
 11 12  1  0
 12 13  1  0
 13 14  1  0
 14 15  1  0
 15 16  1  0
 16 17  1  0
  9 18  2  0
 18 19  1  0
 19 20  1  0
 20 21  2  0
 21 22  1  0
 22 23  2  0
  5 24  1  0
 24 25  2  0
 25  2  1  0
 23  7  1  0
 17 12  1  0
 22 18  1  0
  3 26  1  0
  4 27  1  0
  6 28  1  0
 11 29  1  0
 11 30  1  0
 12 31  1  0
 13 32  1  0
 13 33  1  0
 14 34  1  0
 14 35  1  0
 15 36  1  0
 15 37  1  0
 16 38  1  0
 16 39  1  0
 17 40  1  0
 17 41  1  0
 19 42  1  0
 20 43  1  0
 24 44  1  0
 25 45  1  0
M  END
>  <meeko>  (1) 
{"is_sidechain": false}

>  <CID>  (1) 
5329558

>  <pose_index>  (1) 
1

>  <docking_score>  (1) 
-9.605

>  <rmsd_to_best_selected>  (1) 
0.0

>  <MWT>  (1) 
341.3899999999997

>  <TPSA>  (1) 
75.72

>  <logP>  (1) 
4.194700000000002

>  <HBD>  (1) 
2

>  <HBA>  (1) 
5

>  <SMILES>  (1) 
[H]c1c([H])c(N([H])c2nc(OC([H])([H])C3([H])C([H])([H])C([H])([H])C([H])([H])C([H])([H])C3([H])[H])c3c(n2)nc([H])n3[H])c([H])c([H])c1F

$$$$
5329558_pose2
     RDKit          3D

 45 48  0  0  0  0  0  0  0  0999 V2000
    7.7176   43.5212   48.0698 F   0  0  0  0  0  0  0  0  0  0  0  0
    6.7156   43.5721   48.9583 C   0  0  0  0  0  0  0  0  0  0  0  0
    6.4552   42.4724   49.7610 C   0  0  0  0  0  0  0  0  0  0  0  0
    5.4089   42.5301   50.6851 C   0  0  0  0  0  0  0  0  0  0  0  0
    4.6129   43.6829   50.8209 C   0  0  0  0  0  0  0  0  0  0  0  0
    3.5810   43.6695   51.7652 N   0  0  0  0  0  0  0  0  0  0  0  0
    3.4193   44.2209   53.0368 C   0  0  0  0  0  0  0  0  0  0  0  0
    4.1900   45.3112   53.2536 N   0  0  0  0  0  0  0  0  0  0  0  0
    4.1315   45.9397   54.4425 C   0  0  0  0  0  0  0  0  0  0  0  0
    4.8705   47.0695   54.7078 O   0  0  0  0  0  0  0  0  0  0  0  0
    5.7533   47.4887   53.6636 C   0  0  0  0  0  0  0  0  0  0  0  0
    7.1022   46.7571   53.7687 C   0  0  0  0  0  0  0  0  0  0  0  0
    7.5026   46.1873   52.3994 C   0  0  0  0  0  0  0  0  0  0  0  0
    8.8537   45.4768   52.4508 C   0  0  0  0  0  0  0  0  0  0  0  0
    9.9452   46.3883   53.0009 C   0  0  0  0  0  0  0  0  0  0  0  0
    9.5629   46.9539   54.3645 C   0  0  0  0  0  0  0  0  0  0  0  0
    8.2121   47.6660   54.3234 C   0  0  0  0  0  0  0  0  0  0  0  0
    3.2678   45.4469   55.3836 C   0  0  0  0  0  0  0  0  0  0  0  0
    2.9187   45.7978   56.6551 N   0  0  0  0  0  0  0  0  0  0  0  0
    1.9835   44.8942   57.0831 C   0  0  0  0  0  0  0  0  0  0  0  0
    1.7187   43.9944   56.1597 N   0  0  0  0  0  0  0  0  0  0  0  0
    2.5132   44.3324   55.0950 C   0  0  0  0  0  0  0  0  0  0  0  0
    2.5688   43.6900   53.9208 N   0  0  0  0  0  0  0  0  0  0  0  0
    4.9032   44.7752   49.9932 C   0  0  0  0  0  0  0  0  0  0  0  0
    5.9498   44.7234   49.0663 C   0  0  0  0  0  0  0  0  0  0  0  0
    7.0668   41.5625   49.6713 H   0  0  0  0  0  0  0  0  0  0  0  0
    5.2028   41.6559   51.3201 H   0  0  0  0  0  0  0  0  0  0  0  0
    2.7518   43.1448   51.5303 H   0  0  0  0  0  0  0  0  0  0  0  0
    5.2944   47.2626   52.6898 H   0  0  0  0  0  0  0  0  0  0  0  0
    5.9281   48.5704   53.7600 H   0  0  0  0  0  0  0  0  0  0  0  0
    6.9770   45.9289   54.4818 H   0  0  0  0  0  0  0  0  0  0  0  0
    6.7353   45.4690   52.0750 H   0  0  0  0  0  0  0  0  0  0  0  0
    7.5853   47.0259   51.6924 H   0  0  0  0  0  0  0  0  0  0  0  0
    8.7675   44.5917   53.0983 H   0  0  0  0  0  0  0  0  0  0  0  0
    9.1302   45.1876   51.4262 H   0  0  0  0  0  0  0  0  0  0  0  0
   10.8764   45.8115   53.1011 H   0  0  0  0  0  0  0  0  0  0  0  0
   10.0792   47.2280   52.3031 H   0  0  0  0  0  0  0  0  0  0  0  0
    9.5088   46.1289   55.0900 H   0  0  0  0  0  0  0  0  0  0  0  0
   10.3281   47.6878   54.6575 H   0  0  0  0  0  0  0  0  0  0  0  0
    7.9418   47.9753   55.3439 H   0  0  0  0  0  0  0  0  0  0  0  0
    8.3052   48.5364   53.6573 H   0  0  0  0  0  0  0  0  0  0  0  0
    3.2853   46.5809   57.1788 H   0  0  0  0  0  0  0  0  0  0  0  0
    1.5116   44.9173   58.0765 H   0  0  0  0  0  0  0  0  0  0  0  0
    4.2975   45.6899   50.0735 H   0  0  0  0  0  0  0  0  0  0  0  0
    6.1643   45.5918   48.4260 H   0  0  0  0  0  0  0  0  0  0  0  0
  1  2  1  0
  2  3  2  0
  3  4  1  0
  4  5  2  0
  5  6  1  0
  6  7  1  0
  7  8  2  0
  8  9  1  0
  9 10  1  0
 10 11  1  0
 11 12  1  0
 12 13  1  0
 13 14  1  0
 14 15  1  0
 15 16  1  0
 16 17  1  0
  9 18  2  0
 18 19  1  0
 19 20  1  0
 20 21  2  0
 21 22  1  0
 22 23  2  0
  5 24  1  0
 24 25  2  0
 25  2  1  0
 23  7  1  0
 17 12  1  0
 22 18  1  0
  3 26  1  0
  4 27  1  0
  6 28  1  0
 11 29  1  0
 11 30  1  0
 12 31  1  0
 13 32  1  0
 13 33  1  0
 14 34  1  0
 14 35  1  0
 15 36  1  0
 15 37  1  0
 16 38  1  0
 16 39  1  0
 17 40  1  0
 17 41  1  0
 19 42  1  0
 20 43  1  0
 24 44  1  0
 25 45  1  0
M  END
>  <meeko>  (2) 
{"is_sidechain": false}

>  <CID>  (2) 
5329558

>  <pose_index>  (2) 
2

>  <docking_score>  (2) 
-9.548

>  <rmsd_to_best_selected>  (2) 
1.0379908427223195

>  <MWT>  (2) 
341.3899999999997

>  <TPSA>  (2) 
75.72

>  <logP>  (2) 
4.194700000000002

>  <HBD>  (2) 
2

>  <HBA>  (2) 
5

>  <SMILES>  (2) 
[H]c1c([H])c(N([H])c2nc(OC([H])([H])C3([H])C([H])([H])C([H])([H])C([H])([H])C([H])([H])C3([H])[H])c3c(n2)nc([H])n3[H])c([H])c([H])c1F

$$$$
5329558_pose3
     RDKit          3D

 45 48  0  0  0  0  0  0  0  0999 V2000
    7.8836   44.1125   48.2014 F   0  0  0  0  0  0  0  0  0  0  0  0
    6.8762   43.9996   49.0772 C   0  0  0  0  0  0  0  0  0  0  0  0
    5.7459   44.7885   48.9267 C   0  0  0  0  0  0  0  0  0  0  0  0
    4.6969   44.6672   49.8426 C   0  0  0  0  0  0  0  0  0  0  0  0
    4.7628   43.7596   50.9161 C   0  0  0  0  0  0  0  0  0  0  0  0
    3.6783   43.6925   51.7972 N   0  0  0  0  0  0  0  0  0  0  0  0
    3.3710   44.3096   53.0106 C   0  0  0  0  0  0  0  0  0  0  0  0
    4.3543   45.1196   53.4670 N   0  0  0  0  0  0  0  0  0  0  0  0
    4.1865   45.7755   54.6308 C   0  0  0  0  0  0  0  0  0  0  0  0
    5.1405   46.6337   55.1281 O   0  0  0  0  0  0  0  0  0  0  0  0
    6.4672   46.1066   55.2000 C   0  0  0  0  0  0  0  0  0  0  0  0
    7.2516   46.4368   53.9178 C   0  0  0  0  0  0  0  0  0  0  0  0
    8.3505   47.4661   54.2216 C   0  0  0  0  0  0  0  0  0  0  0  0
    9.1760   47.8025   52.9818 C   0  0  0  0  0  0  0  0  0  0  0  0
    9.7643   46.5491   52.3437 C   0  0  0  0  0  0  0  0  0  0  0  0
    8.6809   45.5228   52.0296 C   0  0  0  0  0  0  0  0  0  0  0  0
    7.8504   45.1808   53.2647 C   0  0  0  0  0  0  0  0  0  0  0  0
    3.0037   45.6015   55.2980 C   0  0  0  0  0  0  0  0  0  0  0  0
    2.4637   46.0838   56.4537 N   0  0  0  0  0  0  0  0  0  0  0  0
    1.2221   45.5230   56.5873 C   0  0  0  0  0  0  0  0  0  0  0  0
    0.9421   44.7179   55.5853 N   0  0  0  0  0  0  0  0  0  0  0  0
    2.0461   44.7610   54.7744 C   0  0  0  0  0  0  0  0  0  0  0  0
    2.2033   44.0935   53.6245 N   0  0  0  0  0  0  0  0  0  0  0  0
    5.9201   42.9796   51.0398 C   0  0  0  0  0  0  0  0  0  0  0  0
    6.9733   43.0962   50.1245 C   0  0  0  0  0  0  0  0  0  0  0  0
    5.6752   45.5036   48.0938 H   0  0  0  0  0  0  0  0  0  0  0  0
    3.8012   45.2942   49.7218 H   0  0  0  0  0  0  0  0  0  0  0  0
    2.9295   43.0602   51.5556 H   0  0  0  0  0  0  0  0  0  0  0  0
    6.9851   46.5478   56.0643 H   0  0  0  0  0  0  0  0  0  0  0  0
    6.4090   45.0135   55.3085 H   0  0  0  0  0  0  0  0  0  0  0  0
    6.5423   46.8676   53.1957 H   0  0  0  0  0  0  0  0  0  0  0  0
    7.8806   48.3874   54.5964 H   0  0  0  0  0  0  0  0  0  0  0  0
    9.0262   47.0309   54.9726 H   0  0  0  0  0  0  0  0  0  0  0  0
    8.5297   48.3070   52.2484 H   0  0  0  0  0  0  0  0  0  0  0  0
   10.0065   48.4558   53.2877 H   0  0  0  0  0  0  0  0  0  0  0  0
   10.2740   46.8286   51.4098 H   0  0  0  0  0  0  0  0  0  0  0  0
   10.4719   46.0983   53.0551 H   0  0  0  0  0  0  0  0  0  0  0  0
    8.0157   45.9326   51.2552 H   0  0  0  0  0  0  0  0  0  0  0  0
    9.1718   44.6022   51.6812 H   0  0  0  0  0  0  0  0  0  0  0  0
    7.0313   44.5092   52.9679 H   0  0  0  0  0  0  0  0  0  0  0  0
    8.5128   44.6977   53.9981 H   0  0  0  0  0  0  0  0  0  0  0  0
    2.9035   46.7348   57.0905 H   0  0  0  0  0  0  0  0  0  0  0  0
    0.5421   45.7213   57.4289 H   0  0  0  0  0  0  0  0  0  0  0  0
    6.0027   42.2631   51.8703 H   0  0  0  0  0  0  0  0  0  0  0  0
    7.8735   42.4739   50.2358 H   0  0  0  0  0  0  0  0  0  0  0  0
  1  2  1  0
  2  3  2  0
  3  4  1  0
  4  5  2  0
  5  6  1  0
  6  7  1  0
  7  8  2  0
  8  9  1  0
  9 10  1  0
 10 11  1  0
 11 12  1  0
 12 13  1  0
 13 14  1  0
 14 15  1  0
 15 16  1  0
 16 17  1  0
  9 18  2  0
 18 19  1  0
 19 20  1  0
 20 21  2  0
 21 22  1  0
 22 23  2  0
  5 24  1  0
 24 25  2  0
 25  2  1  0
 23  7  1  0
 17 12  1  0
 22 18  1  0
  3 26  1  0
  4 27  1  0
  6 28  1  0
 11 29  1  0
 11 30  1  0
 12 31  1  0
 13 32  1  0
 13 33  1  0
 14 34  1  0
 14 35  1  0
 15 36  1  0
 15 37  1  0
 16 38  1  0
 16 39  1  0
 17 40  1  0
 17 41  1  0
 19 42  1  0
 20 43  1  0
 24 44  1  0
 25 45  1  0
M  END
>  <meeko>  (3) 
{"is_sidechain": false}

>  <CID>  (3) 
5329558

>  <pose_index>  (3) 
3

>  <docking_score>  (3) 
-9.495

>  <rmsd_to_best_selected>  (3) 
1.4576360967617512

>  <MWT>  (3) 
341.3899999999997

>  <TPSA>  (3) 
75.72

>  <logP>  (3) 
4.194700000000002

>  <HBD>  (3) 
2

>  <HBA>  (3) 
5

>  <SMILES>  (3) 
[H]c1c([H])c(N([H])c2nc(OC([H])([H])C3([H])C([H])([H])C([H])([H])C([H])([H])C([H])([H])C3([H])[H])c3c(n2)nc([H])n3[H])c([H])c([H])c1F

$$$$
5329558_pose6
     RDKit          3D

 45 48  0  0  0  0  0  0  0  0999 V2000
    7.5037   43.3972   47.6159 F   0  0  0  0  0  0  0  0  0  0  0  0
    6.6106   43.7089   48.5653 C   0  0  0  0  0  0  0  0  0  0  0  0
    5.5084   42.8921   48.7638 C   0  0  0  0  0  0  0  0  0  0  0  0
    4.5799   43.2213   49.7548 C   0  0  0  0  0  0  0  0  0  0  0  0
    4.7410   44.3644   50.5601 C   0  0  0  0  0  0  0  0  0  0  0  0
    3.7722   44.6349   51.5324 N   0  0  0  0  0  0  0  0  0  0  0  0
    3.7341   44.5305   52.9225 C   0  0  0  0  0  0  0  0  0  0  0  0
    4.8944   44.8838   53.5216 N   0  0  0  0  0  0  0  0  0  0  0  0
    4.9925   44.8270   54.8629 C   0  0  0  0  0  0  0  0  0  0  0  0
    6.1378   45.2026   55.5267 O   0  0  0  0  0  0  0  0  0  0  0  0
    6.3780   46.6102   55.5950 C   0  0  0  0  0  0  0  0  0  0  0  0
    7.4388   47.0292   54.5620 C   0  0  0  0  0  0  0  0  0  0  0  0
    8.3643   45.8442   54.2461 C   0  0  0  0  0  0  0  0  0  0  0  0
    9.4166   46.2052   53.2004 C   0  0  0  0  0  0  0  0  0  0  0  0
    8.7780   46.7521   51.9286 C   0  0  0  0  0  0  0  0  0  0  0  0
    7.8635   47.9353   52.2284 C   0  0  0  0  0  0  0  0  0  0  0  0
    6.8073   47.5827   53.2743 C   0  0  0  0  0  0  0  0  0  0  0  0
    3.8903   44.4225   55.5682 C   0  0  0  0  0  0  0  0  0  0  0  0
    3.5950   44.2563   56.8891 N   0  0  0  0  0  0  0  0  0  0  0  0
    2.2999   43.8171   56.9624 C   0  0  0  0  0  0  0  0  0  0  0  0
    1.7580   43.6992   55.7689 N   0  0  0  0  0  0  0  0  0  0  0  0
    2.7424   44.0769   54.8934 C   0  0  0  0  0  0  0  0  0  0  0  0
    2.6329   44.1179   53.5584 N   0  0  0  0  0  0  0  0  0  0  0  0
    5.8661   45.1687   50.3320 C   0  0  0  0  0  0  0  0  0  0  0  0
    6.7988   44.8435   49.3400 C   0  0  0  0  0  0  0  0  0  0  0  0
    5.3659   41.9927   48.1466 H   0  0  0  0  0  0  0  0  0  0  0  0
    3.7044   42.5733   49.9089 H   0  0  0  0  0  0  0  0  0  0  0  0
    2.8763   44.9665   51.2066 H   0  0  0  0  0  0  0  0  0  0  0  0
    5.4404   47.1473   55.3888 H   0  0  0  0  0  0  0  0  0  0  0  0
    6.7453   46.8589   56.6016 H   0  0  0  0  0  0  0  0  0  0  0  0
    8.0315   47.8431   55.0050 H   0  0  0  0  0  0  0  0  0  0  0  0
    8.8736   45.5346   55.1706 H   0  0  0  0  0  0  0  0  0  0  0  0
    7.7472   45.0288   53.8406 H   0  0  0  0  0  0  0  0  0  0  0  0
   10.0890   46.9684   53.6191 H   0  0  0  0  0  0  0  0  0  0  0  0
    9.9725   45.2920   52.9415 H   0  0  0  0  0  0  0  0  0  0  0  0
    9.5723   47.0790   51.2415 H   0  0  0  0  0  0  0  0  0  0  0  0
    8.1727   45.9536   51.4747 H   0  0  0  0  0  0  0  0  0  0  0  0
    8.4728   48.7704   52.6045 H   0  0  0  0  0  0  0  0  0  0  0  0
    7.3457   48.2126   51.2983 H   0  0  0  0  0  0  0  0  0  0  0  0
    6.2340   48.4886   53.5203 H   0  0  0  0  0  0  0  0  0  0  0  0
    6.1557   46.8037   52.8518 H   0  0  0  0  0  0  0  0  0  0  0  0
    4.2192   44.4255   57.6664 H   0  0  0  0  0  0  0  0  0  0  0  0
    1.7768   43.5908   57.9033 H   0  0  0  0  0  0  0  0  0  0  0  0
    6.0188   46.0708   50.9427 H   0  0  0  0  0  0  0  0  0  0  0  0
    7.6771   45.4851   49.1758 H   0  0  0  0  0  0  0  0  0  0  0  0
  1  2  1  0
  2  3  2  0
  3  4  1  0
  4  5  2  0
  5  6  1  0
  6  7  1  0
  7  8  2  0
  8  9  1  0
  9 10  1  0
 10 11  1  0
 11 12  1  0
 12 13  1  0
 13 14  1  0
 14 15  1  0
 15 16  1  0
 16 17  1  0
  9 18  2  0
 18 19  1  0
 19 20  1  0
 20 21  2  0
 21 22  1  0
 22 23  2  0
  5 24  1  0
 24 25  2  0
 25  2  1  0
 23  7  1  0
 17 12  1  0
 22 18  1  0
  3 26  1  0
  4 27  1  0
  6 28  1  0
 11 29  1  0
 11 30  1  0
 12 31  1  0
 13 32  1  0
 13 33  1  0
 14 34  1  0
 14 35  1  0
 15 36  1  0
 15 37  1  0
 16 38  1  0
 16 39  1  0
 17 40  1  0
 17 41  1  0
 19 42  1  0
 20 43  1  0
 24 44  1  0
 25 45  1  0
M  END
>  <meeko>  (4) 
{"is_sidechain": false}

>  <CID>  (4) 
5329558

>  <pose_index>  (4) 
6

>  <docking_score>  (4) 
-9.069

>  <rmsd_to_best_selected>  (4) 
1.255077191265076

>  <MWT>  (4) 
341.3899999999997

>  <TPSA>  (4) 
75.72

>  <logP>  (4) 
4.194700000000002

>  <HBD>  (4) 
2

>  <HBA>  (4) 
5

>  <SMILES>  (4) 
[H]c1c([H])c(N([H])c2nc(OC([H])([H])C3([H])C([H])([H])C([H])([H])C([H])([H])C([H])([H])C3([H])[H])c3c(n2)nc([H])n3[H])c([H])c([H])c1F

$$$$
5329558_pose10
     RDKit          3D

 45 48  0  0  0  0  0  0  0  0999 V2000
    7.4895   44.4401   47.4720 F   0  0  0  0  0  0  0  0  0  0  0  0
    6.8472   44.0440   48.5798 C   0  0  0  0  0  0  0  0  0  0  0  0
    6.8735   44.8456   49.7108 C   0  0  0  0  0  0  0  0  0  0  0  0
    6.2020   44.4282   50.8633 C   0  0  0  0  0  0  0  0  0  0  0  0
    5.4973   43.2103   50.9003 C   0  0  0  0  0  0  0  0  0  0  0  0
    4.8508   42.8540   52.0889 N   0  0  0  0  0  0  0  0  0  0  0  0
    4.2870   43.5743   53.1426 C   0  0  0  0  0  0  0  0  0  0  0  0
    5.1957   44.2575   53.8751 N   0  0  0  0  0  0  0  0  0  0  0  0
    4.7846   44.9942   54.9244 C   0  0  0  0  0  0  0  0  0  0  0  0
    5.6608   45.7319   55.6859 O   0  0  0  0  0  0  0  0  0  0  0  0
    5.7988   47.1054   55.3125 C   0  0  0  0  0  0  0  0  0  0  0  0
    7.0680   47.3105   54.4662 C   0  0  0  0  0  0  0  0  0  0  0  0
    8.0487   46.1513   54.6957 C   0  0  0  0  0  0  0  0  0  0  0  0
    9.3134   46.2978   53.8524 C   0  0  0  0  0  0  0  0  0  0  0  0
    8.9840   46.4473   52.3706 C   0  0  0  0  0  0  0  0  0  0  0  0
    8.0168   47.6019   52.1299 C   0  0  0  0  0  0  0  0  0  0  0  0
    6.7494   47.4629   52.9701 C   0  0  0  0  0  0  0  0  0  0  0  0
    3.4422   45.0279   55.1943 C   0  0  0  0  0  0  0  0  0  0  0  0
    2.6568   45.6468   56.1228 N   0  0  0  0  0  0  0  0  0  0  0  0
    1.3635   45.2781   55.8691 C   0  0  0  0  0  0  0  0  0  0  0  0
    1.2816   44.4674   54.8354 N   0  0  0  0  0  0  0  0  0  0  0  0
    2.5732   44.3081   54.4068 C   0  0  0  0  0  0  0  0  0  0  0  0
    2.9690   43.5619   53.3668 N   0  0  0  0  0  0  0  0  0  0  0  0
    5.4927   42.4243   49.7409 C   0  0  0  0  0  0  0  0  0  0  0  0
    6.1630   42.8383   48.5837 C   0  0  0  0  0  0  0  0  0  0  0  0
    7.4179   45.8014   49.7012 H   0  0  0  0  0  0  0  0  0  0  0  0
    6.2246   45.0647   51.7601 H   0  0  0  0  0  0  0  0  0  0  0  0
    4.7591   41.8682   52.2835 H   0  0  0  0  0  0  0  0  0  0  0  0
    4.9197   47.4109   54.7261 H   0  0  0  0  0  0  0  0  0  0  0  0
    5.8777   47.7152   56.2245 H   0  0  0  0  0  0  0  0  0  0  0  0
    7.5365   48.2506   54.7926 H   0  0  0  0  0  0  0  0  0  0  0  0
    8.3309   46.1298   55.7587 H   0  0  0  0  0  0  0  0  0  0  0  0
    7.5479   45.2180   54.3987 H   0  0  0  0  0  0  0  0  0  0  0  0
    9.8650   47.1886   54.1875 H   0  0  0  0  0  0  0  0  0  0  0  0
    9.9205   45.3895   53.9807 H   0  0  0  0  0  0  0  0  0  0  0  0
    9.9138   46.6373   51.8145 H   0  0  0  0  0  0  0  0  0  0  0  0
    8.5066   45.5180   52.0263 H   0  0  0  0  0  0  0  0  0  0  0  0
    8.5166   48.5459   52.3925 H   0  0  0  0  0  0  0  0  0  0  0  0
    7.7272   47.5905   51.0688 H   0  0  0  0  0  0  0  0  0  0  0  0
    6.1284   48.3597   52.8282 H   0  0  0  0  0  0  0  0  0  0  0  0
    6.2191   46.5574   52.6403 H   0  0  0  0  0  0  0  0  0  0  0  0
    2.9761   46.2608   56.8592 H   0  0  0  0  0  0  0  0  0  0  0  0
    0.4981   45.6179   56.4571 H   0  0  0  0  0  0  0  0  0  0  0  0
    4.9533   41.4656   49.7397 H   0  0  0  0  0  0  0  0  0  0  0  0
    6.1468   42.2095   47.6813 H   0  0  0  0  0  0  0  0  0  0  0  0
  1  2  1  0
  2  3  2  0
  3  4  1  0
  4  5  2  0
  5  6  1  0
  6  7  1  0
  7  8  2  0
  8  9  1  0
  9 10  1  0
 10 11  1  0
 11 12  1  0
 12 13  1  0
 13 14  1  0
 14 15  1  0
 15 16  1  0
 16 17  1  0
  9 18  2  0
 18 19  1  0
 19 20  1  0
 20 21  2  0
 21 22  1  0
 22 23  2  0
  5 24  1  0
 24 25  2  0
 25  2  1  0
 23  7  1  0
 17 12  1  0
 22 18  1  0
  3 26  1  0
  4 27  1  0
  6 28  1  0
 11 29  1  0
 11 30  1  0
 12 31  1  0
 13 32  1  0
 13 33  1  0
 14 34  1  0
 14 35  1  0
 15 36  1  0
 15 37  1  0
 16 38  1  0
 16 39  1  0
 17 40  1  0
 17 41  1  0
 19 42  1  0
 20 43  1  0
 24 44  1  0
 25 45  1  0
M  END
>  <meeko>  (5) 
{"is_sidechain": false}

>  <CID>  (5) 
5329558

>  <pose_index>  (5) 
10

>  <docking_score>  (5) 
-8.974

>  <rmsd_to_best_selected>  (5) 
1.2187193615583791

>  <MWT>  (5) 
341.3899999999997

>  <TPSA>  (5) 
75.72

>  <logP>  (5) 
4.194700000000002

>  <HBD>  (5) 
2

>  <HBA>  (5) 
5

>  <SMILES>  (5) 
[H]c1c([H])c(N([H])c2nc(OC([H])([H])C3([H])C([H])([H])C([H])([H])C([H])([H])C([H])([H])C3([H])[H])c3c(n2)nc([H])n3[H])c([H])c([H])c1F

$$$$
