Z107740192_pose10
     RDKit          3D

 54 57  0  0  0  0  0  0  0  0999 V2000
    5.7642   45.4009   56.9587 N   0  0  0  0  0  0  0  0  0  0  0  0
    5.3156   45.2384   55.8993 C   0  0  0  0  0  0  0  0  0  0  0  0
    4.6796   44.9656   54.6139 C   0  0  1  0  0  0  0  0  0  0  0  0
    3.1751   44.9177   54.6404 C   0  0  0  0  0  0  0  0  0  0  0  0
    2.5214   45.8041   55.4410 N   0  0  0  0  0  0  0  0  0  0  0  0
    1.1813   45.7160   55.5020 C   0  0  0  0  0  0  0  0  0  0  0  0
    0.4656   46.6030   56.2986 C   0  0  0  0  0  0  0  0  0  0  0  0
   -0.9251   46.5353   56.3894 C   0  0  0  0  0  0  0  0  0  0  0  0
   -1.6103   45.5629   55.6727 C   0  0  0  0  0  0  0  0  0  0  0  0
   -0.8995   44.6696   54.8713 C   0  0  0  0  0  0  0  0  0  0  0  0
    0.4873   44.7301   54.7723 C   0  0  0  0  0  0  0  0  0  0  0  0
    1.1394   43.8512   53.9874 N   0  0  0  0  0  0  0  0  0  0  0  0
    2.4814   43.9439   53.9001 C   0  0  0  0  0  0  0  0  0  0  0  0
    3.1898   43.0499   53.0699 N   0  0  0  0  0  0  0  0  0  0  0  0
    2.8193   43.1232   51.6518 C   0  0  0  0  0  0  0  0  0  0  0  0
    4.0831   43.2660   50.7814 C   0  0  0  0  0  0  0  0  0  0  0  0
    4.0591   42.3578   49.5441 C   0  0  0  0  0  0  0  0  0  0  0  0
    5.2743   42.5904   48.6416 C   0  0  0  0  0  0  0  0  0  0  0  0
    6.5117   43.0877   49.3893 C   0  0  0  0  0  0  0  0  0  0  0  0
    6.5586   42.5498   50.8113 C   0  0  0  0  0  0  0  0  0  0  0  0
    5.3385   42.9781   51.6311 C   0  0  0  0  0  0  0  0  0  0  0  0
    5.1504   46.2883   53.5167 S   0  0  0  0  0  0  0  0  0  0  0  0
    5.3403   47.5308   54.2416 O   0  0  0  0  0  0  0  0  0  0  0  0
    4.2778   46.2715   52.3488 O   0  0  0  0  0  0  0  0  0  0  0  0
    6.7555   45.7952   52.8980 C   0  0  0  0  0  0  0  0  0  0  0  0
    7.1705   46.2155   51.6280 C   0  0  0  0  0  0  0  0  0  0  0  0
    8.4177   45.8121   51.1505 C   0  0  0  0  0  0  0  0  0  0  0  0
    9.2225   44.9893   51.9330 C   0  0  0  0  0  0  0  0  0  0  0  0
   10.4185   44.6027   51.4687 F   0  0  0  0  0  0  0  0  0  0  0  0
    8.8038   44.5549   53.1879 C   0  0  0  0  0  0  0  0  0  0  0  0
    7.5593   44.9540   53.6773 C   0  0  0  0  0  0  0  0  0  0  0  0
    5.0132   43.9658   54.2993 H   0  0  0  0  0  0  0  0  0  0  0  0
    1.0064   47.3730   56.8684 H   0  0  0  0  0  0  0  0  0  0  0  0
   -1.4744   47.2467   57.0236 H   0  0  0  0  0  0  0  0  0  0  0  0
   -2.7065   45.4975   55.7367 H   0  0  0  0  0  0  0  0  0  0  0  0
   -1.4466   43.9010   54.3056 H   0  0  0  0  0  0  0  0  0  0  0  0
    4.1906   43.2701   53.1716 H   0  0  0  0  0  0  0  0  0  0  0  0
    2.2837   42.2053   51.3678 H   0  0  0  0  0  0  0  0  0  0  0  0
    2.1720   43.9983   51.4934 H   0  0  0  0  0  0  0  0  0  0  0  0
    4.1093   44.3022   50.4132 H   0  0  0  0  0  0  0  0  0  0  0  0
    4.0563   41.3082   49.8734 H   0  0  0  0  0  0  0  0  0  0  0  0
    3.1541   42.5940   48.9651 H   0  0  0  0  0  0  0  0  0  0  0  0
    5.5261   41.6405   48.1473 H   0  0  0  0  0  0  0  0  0  0  0  0
    4.9953   43.3768   47.9249 H   0  0  0  0  0  0  0  0  0  0  0  0
    7.4118   42.7549   48.8516 H   0  0  0  0  0  0  0  0  0  0  0  0
    6.4674   44.1857   49.4374 H   0  0  0  0  0  0  0  0  0  0  0  0
    6.5923   41.4510   50.7737 H   0  0  0  0  0  0  0  0  0  0  0  0
    7.4548   42.9608   51.2989 H   0  0  0  0  0  0  0  0  0  0  0  0
    5.0987   42.1731   52.3414 H   0  0  0  0  0  0  0  0  0  0  0  0
    5.6063   43.9193   52.1336 H   0  0  0  0  0  0  0  0  0  0  0  0
    6.5204   46.8563   51.0141 H   0  0  0  0  0  0  0  0  0  0  0  0
    8.7634   46.1427   50.1599 H   0  0  0  0  0  0  0  0  0  0  0  0
    9.4506   43.9003   53.7905 H   0  0  0  0  0  0  0  0  0  0  0  0
    7.2137   44.6118   54.6639 H   0  0  0  0  0  0  0  0  0  0  0  0
  1  2  3  0
  2  3  1  0
  3  4  1  0
  4  5  2  0
  5  6  1  0
  6  7  2  0
  7  8  1  0
  8  9  2  0
  9 10  1  0
 10 11  2  0
 11 12  1  0
 12 13  2  0
 13 14  1  0
 14 15  1  0
 15 16  1  0
 16 17  1  0
 17 18  1  0
 18 19  1  0
 19 20  1  0
 20 21  1  0
  3 22  1  0
 22 23  2  0
 22 24  2  0
 22 25  1  0
 25 26  2  0
 26 27  1  0
 27 28  2  0
 28 29  1  0
 28 30  1  0
 30 31  2  0
 13  4  1  0
 21 16  1  0
 31 25  1  0
 11  6  1  0
  3 32  1  6
  7 33  1  0
  8 34  1  0
  9 35  1  0
 10 36  1  0
 14 37  1  0
 15 38  1  0
 15 39  1  0
 16 40  1  0
 17 41  1  0
 17 42  1  0
 18 43  1  0
 18 44  1  0
 19 45  1  0
 19 46  1  0
 20 47  1  0
 20 48  1  0
 21 49  1  0
 21 50  1  0
 26 51  1  0
 27 52  1  0
 30 53  1  0
 31 54  1  0
M  END
>  <meeko>  (1) 
{"is_sidechain": false}

>  <CID>  (1) 
Z107740192

>  <pose_index>  (1) 
10

>  <docking_score>  (1) 
-7.922

>  <rmsd_to_best_selected>  (1) 
1.4496657906626498

>  <MWT>  (1) 
438.52799999999974

>  <TPSA>  (1) 
95.74000000000001

>  <logP>  (1) 
4.799680000000004

>  <HBD>  (1) 
1

>  <HBA>  (1) 
6

>  <SMILES>  (1) 
[H]c1c([H])c(S(=O)(=O)C([H])(C#N)c2nc3c([H])c([H])c([H])c([H])c3nc2N([H])C([H])([H])C2([H])C([H])([H])C([H])([H])C([H])([H])C([H])([H])C2([H])[H])c([H])c([H])c1F

$$$$
Z107740192_pose1
     RDKit          3D

 54 57  0  0  0  0  0  0  0  0999 V2000
    6.1100   44.7170   56.1210 N   0  0  0  0  0  0  0  0  0  0  0  0
    5.4760   44.8650   55.1580 C   0  0  0  0  0  0  0  0  0  0  0  0
    4.6490   45.1490   53.9890 C   0  0  1  0  0  0  0  0  0  0  0  0
    3.1640   45.0630   54.2180 C   0  0  0  0  0  0  0  0  0  0  0  0
    2.6810   45.4490   55.4320 N   0  0  0  0  0  0  0  0  0  0  0  0
    1.3610   45.3150   55.6470 C   0  0  0  0  0  0  0  0  0  0  0  0
    0.8160   45.7010   56.8660 C   0  0  0  0  0  0  0  0  0  0  0  0
   -0.5480   45.5690   57.1240 C   0  0  0  0  0  0  0  0  0  0  0  0
   -1.3810   45.0400   56.1470 C   0  0  0  0  0  0  0  0  0  0  0  0
   -0.8420   44.6500   54.9200 C   0  0  0  0  0  0  0  0  0  0  0  0
    0.5170   44.7790   54.6530 C   0  0  0  0  0  0  0  0  0  0  0  0
    1.0010   44.3930   53.4570 N   0  0  0  0  0  0  0  0  0  0  0  0
    2.3200   44.5440   53.2210 C   0  0  0  0  0  0  0  0  0  0  0  0
    2.8520   44.1670   51.9700 N   0  0  0  0  0  0  0  0  0  0  0  0
    2.8590   42.7190   51.7300 C   0  0  0  0  0  0  0  0  0  0  0  0
    4.2240   42.2840   51.1610 C   0  0  0  0  0  0  0  0  0  0  0  0
    5.0460   43.4620   50.6200 C   0  0  0  0  0  0  0  0  0  0  0  0
    6.4370   43.0220   50.1560 C   0  0  0  0  0  0  0  0  0  0  0  0
    6.4980   41.5690   49.6840 C   0  0  0  0  0  0  0  0  0  0  0  0
    5.1800   41.1250   49.0670 C   0  0  0  0  0  0  0  0  0  0  0  0
    4.0170   41.2260   50.0580 C   0  0  0  0  0  0  0  0  0  0  0  0
    5.0150   46.8210   53.4930 S   0  0  0  0  0  0  0  0  0  0  0  0
    4.9230   47.7340   54.6170 O   0  0  0  0  0  0  0  0  0  0  0  0
    4.2870   47.1250   52.2670 O   0  0  0  0  0  0  0  0  0  0  0  0
    6.7350   46.7680   53.0050 C   0  0  0  0  0  0  0  0  0  0  0  0
    7.0810   46.3140   51.7260 C   0  0  0  0  0  0  0  0  0  0  0  0
    8.4270   46.2620   51.3620 C   0  0  0  0  0  0  0  0  0  0  0  0
    9.4040   46.6470   52.2740 C   0  0  0  0  0  0  0  0  0  0  0  0
   10.6950   46.5930   51.9210 F   0  0  0  0  0  0  0  0  0  0  0  0
    9.0640   47.0800   53.5530 C   0  0  0  0  0  0  0  0  0  0  0  0
    7.7210   47.1390   53.9290 C   0  0  0  0  0  0  0  0  0  0  0  0
    4.8886   44.3832   53.2366 H   0  0  0  0  0  0  0  0  0  0  0  0
    1.4736   46.1188   57.6425 H   0  0  0  0  0  0  0  0  0  0  0  0
   -0.9611   45.8816   58.0944 H   0  0  0  0  0  0  0  0  0  0  0  0
   -2.4585   44.9291   56.3388 H   0  0  0  0  0  0  0  0  0  0  0  0
   -1.5054   44.2321   54.1485 H   0  0  0  0  0  0  0  0  0  0  0  0
    2.2830   44.6290   51.2470 H   0  0  0  0  0  0  0  0  0  0  0  0
    2.6751   42.1920   52.6779 H   0  0  0  0  0  0  0  0  0  0  0  0
    2.0703   42.4700   51.0048 H   0  0  0  0  0  0  0  0  0  0  0  0
    4.8001   41.8513   51.9921 H   0  0  0  0  0  0  0  0  0  0  0  0
    4.5113   43.9073   49.7681 H   0  0  0  0  0  0  0  0  0  0  0  0
    5.1729   44.1914   51.4336 H   0  0  0  0  0  0  0  0  0  0  0  0
    6.7463   43.6707   49.3232 H   0  0  0  0  0  0  0  0  0  0  0  0
    7.1063   43.1054   51.0249 H   0  0  0  0  0  0  0  0  0  0  0  0
    7.2951   41.4710   48.9323 H   0  0  0  0  0  0  0  0  0  0  0  0
    6.7012   40.9317   50.5572 H   0  0  0  0  0  0  0  0  0  0  0  0
    4.9622   41.7636   48.1982 H   0  0  0  0  0  0  0  0  0  0  0  0
    5.2826   40.0704   48.7715 H   0  0  0  0  0  0  0  0  0  0  0  0
    3.1062   41.4839   49.4976 H   0  0  0  0  0  0  0  0  0  0  0  0
    3.9420   40.2510   50.5617 H   0  0  0  0  0  0  0  0  0  0  0  0
    6.3005   46.0020   51.0165 H   0  0  0  0  0  0  0  0  0  0  0  0
    8.7144   45.9178   50.3575 H   0  0  0  0  0  0  0  0  0  0  0  0
    9.8502   47.3742   54.2639 H   0  0  0  0  0  0  0  0  0  0  0  0
    7.4400   47.4728   54.9388 H   0  0  0  0  0  0  0  0  0  0  0  0
  1  2  3  0
  2  3  1  0
  3  4  1  0
  4  5  2  0
  5  6  1  0
  6  7  2  0
  7  8  1  0
  8  9  2  0
  9 10  1  0
 10 11  2  0
 11 12  1  0
 12 13  2  0
 13 14  1  0
 14 15  1  0
 15 16  1  0
 16 17  1  0
 17 18  1  0
 18 19  1  0
 19 20  1  0
 20 21  1  0
  3 22  1  0
 22 23  2  0
 22 24  2  0
 22 25  1  0
 25 26  2  0
 26 27  1  0
 27 28  2  0
 28 29  1  0
 28 30  1  0
 30 31  2  0
 13  4  1  0
 21 16  1  0
 31 25  1  0
 11  6  1  0
  3 32  1  6
  7 33  1  0
  8 34  1  0
  9 35  1  0
 10 36  1  0
 14 37  1  0
 15 38  1  0
 15 39  1  0
 16 40  1  0
 17 41  1  0
 17 42  1  0
 18 43  1  0
 18 44  1  0
 19 45  1  0
 19 46  1  0
 20 47  1  0
 20 48  1  0
 21 49  1  0
 21 50  1  0
 26 51  1  0
 27 52  1  0
 30 53  1  0
 31 54  1  0
M  END
>  <meeko>  (2) 
{"is_sidechain": false}

>  <CID>  (2) 
Z107740192

>  <pose_index>  (2) 
1

>  <docking_score>  (2) 
-9.921

>  <rmsd_to_best_selected>  (2) 
0.0

>  <MWT>  (2) 
438.52799999999974

>  <TPSA>  (2) 
95.74000000000001

>  <logP>  (2) 
4.799680000000004

>  <HBD>  (2) 
1

>  <HBA>  (2) 
6

>  <SMILES>  (2) 
[H]c1c([H])c(S(=O)(=O)C([H])(C#N)c2nc3c([H])c([H])c([H])c([H])c3nc2N([H])C([H])([H])C2([H])C([H])([H])C([H])([H])C([H])([H])C([H])([H])C2([H])[H])c([H])c([H])c1F

$$$$
Z107740192_pose2
     RDKit          3D

 54 57  0  0  0  0  0  0  0  0999 V2000
    5.9777   44.6251   56.1845 N   0  0  0  0  0  0  0  0  0  0  0  0
    5.3667   44.7787   55.2086 C   0  0  0  0  0  0  0  0  0  0  0  0
    4.5627   45.0658   54.0246 C   0  0  1  0  0  0  0  0  0  0  0  0
    3.0737   45.0417   54.2394 C   0  0  0  0  0  0  0  0  0  0  0  0
    2.5958   45.4386   55.4515 N   0  0  0  0  0  0  0  0  0  0  0  0
    1.2695   45.3592   55.6533 C   0  0  0  0  0  0  0  0  0  0  0  0
    0.7298   45.7599   56.8713 C   0  0  0  0  0  0  0  0  0  0  0  0
   -0.6417   45.6847   57.1158 C   0  0  0  0  0  0  0  0  0  0  0  0
   -1.4871   45.1975   56.1271 C   0  0  0  0  0  0  0  0  0  0  0  0
   -0.9536   44.7927   54.9035 C   0  0  0  0  0  0  0  0  0  0  0  0
    0.4126   44.8655   54.6482 C   0  0  0  0  0  0  0  0  0  0  0  0
    0.8907   44.4677   53.4552 N   0  0  0  0  0  0  0  0  0  0  0  0
    2.2174   44.5649   53.2314 C   0  0  0  0  0  0  0  0  0  0  0  0
    2.7450   44.1740   51.9820 N   0  0  0  0  0  0  0  0  0  0  0  0
    3.1083   42.7538   51.9008 C   0  0  0  0  0  0  0  0  0  0  0  0
    4.0403   42.5157   50.6969 C   0  0  0  0  0  0  0  0  0  0  0  0
    4.6217   41.0965   50.6647 C   0  0  0  0  0  0  0  0  0  0  0  0
    5.4593   40.8492   49.4069 C   0  0  0  0  0  0  0  0  0  0  0  0
    6.1012   42.1151   48.8371 C   0  0  0  0  0  0  0  0  0  0  0  0
    6.4268   43.1191   49.9322 C   0  0  0  0  0  0  0  0  0  0  0  0
    5.1778   43.5582   50.7012 C   0  0  0  0  0  0  0  0  0  0  0  0
    4.9964   46.7111   53.4940 S   0  0  0  0  0  0  0  0  0  0  0  0
    4.9083   47.6574   54.5908 O   0  0  0  0  0  0  0  0  0  0  0  0
    4.3087   47.0049   52.2434 O   0  0  0  0  0  0  0  0  0  0  0  0
    6.7250   46.5887   53.0505 C   0  0  0  0  0  0  0  0  0  0  0  0
    7.7084   46.9478   53.9795 C   0  0  0  0  0  0  0  0  0  0  0  0
    9.0534   46.8622   53.6171 C   0  0  0  0  0  0  0  0  0  0  0  0
    9.3969   46.4358   52.3370 C   0  0  0  0  0  0  0  0  0  0  0  0
   10.6885   46.3583   51.9921 F   0  0  0  0  0  0  0  0  0  0  0  0
    8.4193   46.0964   51.4058 C   0  0  0  0  0  0  0  0  0  0  0  0
    7.0708   46.1755   51.7566 C   0  0  0  0  0  0  0  0  0  0  0  0
    4.7805   44.2738   53.2931 H   0  0  0  0  0  0  0  0  0  0  0  0
    1.3974   46.1436   57.6569 H   0  0  0  0  0  0  0  0  0  0  0  0
   -1.0505   46.0088   58.0842 H   0  0  0  0  0  0  0  0  0  0  0  0
   -2.5701   45.1313   56.3080 H   0  0  0  0  0  0  0  0  0  0  0  0
   -1.6271   44.4077   54.1236 H   0  0  0  0  0  0  0  0  0  0  0  0
    2.0295   44.3836   51.2725 H   0  0  0  0  0  0  0  0  0  0  0  0
    3.6248   42.4565   52.8255 H   0  0  0  0  0  0  0  0  0  0  0  0
    2.1948   42.1542   51.7742 H   0  0  0  0  0  0  0  0  0  0  0  0
    3.4311   42.6288   49.7879 H   0  0  0  0  0  0  0  0  0  0  0  0
    5.2590   40.9535   51.5498 H   0  0  0  0  0  0  0  0  0  0  0  0
    3.7826   40.3852   50.6600 H   0  0  0  0  0  0  0  0  0  0  0  0
    6.2591   40.1365   49.6568 H   0  0  0  0  0  0  0  0  0  0  0  0
    4.7764   40.4605   48.6371 H   0  0  0  0  0  0  0  0  0  0  0  0
    7.0305   41.8409   48.3164 H   0  0  0  0  0  0  0  0  0  0  0  0
    5.3857   42.5818   48.1441 H   0  0  0  0  0  0  0  0  0  0  0  0
    7.1337   42.6577   50.6375 H   0  0  0  0  0  0  0  0  0  0  0  0
    6.8621   44.0101   49.4562 H   0  0  0  0  0  0  0  0  0  0  0  0
    5.4648   43.7528   51.7451 H   0  0  0  0  0  0  0  0  0  0  0  0
    4.7905   44.4545   50.1947 H   0  0  0  0  0  0  0  0  0  0  0  0
    7.4242   47.2938   54.9842 H   0  0  0  0  0  0  0  0  0  0  0  0
    9.8385   47.1304   54.3394 H   0  0  0  0  0  0  0  0  0  0  0  0
    8.7087   45.7669   50.3969 H   0  0  0  0  0  0  0  0  0  0  0  0
    6.2893   45.9168   51.0269 H   0  0  0  0  0  0  0  0  0  0  0  0
  1  2  3  0
  2  3  1  0
  3  4  1  0
  4  5  2  0
  5  6  1  0
  6  7  2  0
  7  8  1  0
  8  9  2  0
  9 10  1  0
 10 11  2  0
 11 12  1  0
 12 13  2  0
 13 14  1  0
 14 15  1  0
 15 16  1  0
 16 17  1  0
 17 18  1  0
 18 19  1  0
 19 20  1  0
 20 21  1  0
  3 22  1  0
 22 23  2  0
 22 24  2  0
 22 25  1  0
 25 26  2  0
 26 27  1  0
 27 28  2  0
 28 29  1  0
 28 30  1  0
 30 31  2  0
 13  4  1  0
 21 16  1  0
 31 25  1  0
 11  6  1  0
  3 32  1  6
  7 33  1  0
  8 34  1  0
  9 35  1  0
 10 36  1  0
 14 37  1  0
 15 38  1  0
 15 39  1  0
 16 40  1  0
 17 41  1  0
 17 42  1  0
 18 43  1  0
 18 44  1  0
 19 45  1  0
 19 46  1  0
 20 47  1  0
 20 48  1  0
 21 49  1  0
 21 50  1  0
 26 51  1  0
 27 52  1  0
 30 53  1  0
 31 54  1  0
M  END
>  <meeko>  (3) 
{"is_sidechain": false}

>  <CID>  (3) 
Z107740192

>  <pose_index>  (3) 
2

>  <docking_score>  (3) 
-9.665

>  <rmsd_to_best_selected>  (3) 
0.8038069928084595

>  <MWT>  (3) 
438.52799999999974

>  <TPSA>  (3) 
95.74000000000001

>  <logP>  (3) 
4.799680000000004

>  <HBD>  (3) 
1

>  <HBA>  (3) 
6

>  <SMILES>  (3) 
[H]c1c([H])c(S(=O)(=O)C([H])(C#N)c2nc3c([H])c([H])c([H])c([H])c3nc2N([H])C([H])([H])C2([H])C([H])([H])C([H])([H])C([H])([H])C([H])([H])C2([H])[H])c([H])c([H])c1F

$$$$
Z107740192_pose3
     RDKit          3D

 54 57  0  0  0  0  0  0  0  0999 V2000
    5.7167   43.1907   55.7854 N   0  0  0  0  0  0  0  0  0  0  0  0
    5.1223   43.8708   55.0536 C   0  0  0  0  0  0  0  0  0  0  0  0
    4.4673   44.7332   54.0747 C   0  0  1  0  0  0  0  0  0  0  0  0
    2.9837   44.9029   54.2617 C   0  0  0  0  0  0  0  0  0  0  0  0
    2.5224   45.1552   55.5174 N   0  0  0  0  0  0  0  0  0  0  0  0
    1.1910   45.2479   55.6840 C   0  0  0  0  0  0  0  0  0  0  0  0
    0.6682   45.5124   56.9448 C   0  0  0  0  0  0  0  0  0  0  0  0
   -0.7072   45.6082   57.1540 C   0  0  0  0  0  0  0  0  0  0  0  0
   -1.5756   45.4349   56.0823 C   0  0  0  0  0  0  0  0  0  0  0  0
   -1.0595   45.1686   54.8148 C   0  0  0  0  0  0  0  0  0  0  0  0
    0.3119   45.0729   54.5957 C   0  0  0  0  0  0  0  0  0  0  0  0
    0.7733   44.8170   53.3571 N   0  0  0  0  0  0  0  0  0  0  0  0
    2.1079   44.7437   53.1730 C   0  0  0  0  0  0  0  0  0  0  0  0
    2.6209   44.4971   51.8826 N   0  0  0  0  0  0  0  0  0  0  0  0
    3.1108   43.1276   51.6826 C   0  0  0  0  0  0  0  0  0  0  0  0
    4.4063   43.1468   50.8476 C   0  0  0  0  0  0  0  0  0  0  0  0
    4.1806   42.7309   49.3877 C   0  0  0  0  0  0  0  0  0  0  0  0
    5.4581   42.8575   48.5530 C   0  0  0  0  0  0  0  0  0  0  0  0
    6.7424   42.6905   49.3641 C   0  0  0  0  0  0  0  0  0  0  0  0
    6.5446   41.7420   50.5375 C   0  0  0  0  0  0  0  0  0  0  0  0
    5.4655   42.2380   51.5033 C   0  0  0  0  0  0  0  0  0  0  0  0
    5.2101   46.3455   54.2313 S   0  0  0  0  0  0  0  0  0  0  0  0
    5.5312   46.6437   55.6152 O   0  0  0  0  0  0  0  0  0  0  0  0
    4.4332   47.3056   53.4576 O   0  0  0  0  0  0  0  0  0  0  0  0
    6.7634   46.1999   53.3561 C   0  0  0  0  0  0  0  0  0  0  0  0
    7.6472   47.2856   53.3236 C   0  0  0  0  0  0  0  0  0  0  0  0
    8.8489   47.1661   52.6244 C   0  0  0  0  0  0  0  0  0  0  0  0
    9.1455   45.9794   51.9617 C   0  0  0  0  0  0  0  0  0  0  0  0
   10.2992   45.8698   51.2893 F   0  0  0  0  0  0  0  0  0  0  0  0
    8.2598   44.9054   51.9769 C   0  0  0  0  0  0  0  0  0  0  0  0
    7.0551   45.0121   52.6742 C   0  0  0  0  0  0  0  0  0  0  0  0
    4.6014   44.2581   53.0918 H   0  0  0  0  0  0  0  0  0  0  0  0
    1.3533   45.6490   57.7945 H   0  0  0  0  0  0  0  0  0  0  0  0
   -1.1018   45.8191   58.1589 H   0  0  0  0  0  0  0  0  0  0  0  0
   -2.6628   45.5074   56.2334 H   0  0  0  0  0  0  0  0  0  0  0  0
   -1.7506   45.0312   53.9701 H   0  0  0  0  0  0  0  0  0  0  0  0
    1.8634   44.6884   51.2138 H   0  0  0  0  0  0  0  0  0  0  0  0
    3.3148   42.6674   52.6607 H   0  0  0  0  0  0  0  0  0  0  0  0
    2.3458   42.5454   51.1481 H   0  0  0  0  0  0  0  0  0  0  0  0
    4.7645   44.1866   50.8290 H   0  0  0  0  0  0  0  0  0  0  0  0
    3.8430   41.6843   49.3643 H   0  0  0  0  0  0  0  0  0  0  0  0
    3.4236   43.4020   48.9556 H   0  0  0  0  0  0  0  0  0  0  0  0
    5.4391   42.0850   47.7701 H   0  0  0  0  0  0  0  0  0  0  0  0
    5.4708   43.8762   48.1381 H   0  0  0  0  0  0  0  0  0  0  0  0
    7.5288   42.2883   48.7086 H   0  0  0  0  0  0  0  0  0  0  0  0
    7.0283   43.6752   49.7623 H   0  0  0  0  0  0  0  0  0  0  0  0
    6.2481   40.7559   50.1504 H   0  0  0  0  0  0  0  0  0  0  0  0
    7.4938   41.6847   51.0905 H   0  0  0  0  0  0  0  0  0  0  0  0
    4.9539   41.3624   51.9295 H   0  0  0  0  0  0  0  0  0  0  0  0
    5.9758   42.8437   52.2666 H   0  0  0  0  0  0  0  0  0  0  0  0
    7.3970   48.2222   53.8434 H   0  0  0  0  0  0  0  0  0  0  0  0
    9.5584   48.0063   52.5974 H   0  0  0  0  0  0  0  0  0  0  0  0
    8.5082   43.9769   51.4420 H   0  0  0  0  0  0  0  0  0  0  0  0
    6.3436   44.1733   52.6877 H   0  0  0  0  0  0  0  0  0  0  0  0
  1  2  3  0
  2  3  1  0
  3  4  1  0
  4  5  2  0
  5  6  1  0
  6  7  2  0
  7  8  1  0
  8  9  2  0
  9 10  1  0
 10 11  2  0
 11 12  1  0
 12 13  2  0
 13 14  1  0
 14 15  1  0
 15 16  1  0
 16 17  1  0
 17 18  1  0
 18 19  1  0
 19 20  1  0
 20 21  1  0
  3 22  1  0
 22 23  2  0
 22 24  2  0
 22 25  1  0
 25 26  2  0
 26 27  1  0
 27 28  2  0
 28 29  1  0
 28 30  1  0
 30 31  2  0
 13  4  1  0
 21 16  1  0
 31 25  1  0
 11  6  1  0
  3 32  1  6
  7 33  1  0
  8 34  1  0
  9 35  1  0
 10 36  1  0
 14 37  1  0
 15 38  1  0
 15 39  1  0
 16 40  1  0
 17 41  1  0
 17 42  1  0
 18 43  1  0
 18 44  1  0
 19 45  1  0
 19 46  1  0
 20 47  1  0
 20 48  1  0
 21 49  1  0
 21 50  1  0
 26 51  1  0
 27 52  1  0
 30 53  1  0
 31 54  1  0
M  END
>  <meeko>  (4) 
{"is_sidechain": false}

>  <CID>  (4) 
Z107740192

>  <pose_index>  (4) 
3

>  <docking_score>  (4) 
-9.202

>  <rmsd_to_best_selected>  (4) 
1.362514933281094

>  <MWT>  (4) 
438.52799999999974

>  <TPSA>  (4) 
95.74000000000001

>  <logP>  (4) 
4.799680000000004

>  <HBD>  (4) 
1

>  <HBA>  (4) 
6

>  <SMILES>  (4) 
[H]c1c([H])c(S(=O)(=O)C([H])(C#N)c2nc3c([H])c([H])c([H])c([H])c3nc2N([H])C([H])([H])C2([H])C([H])([H])C([H])([H])C([H])([H])C([H])([H])C2([H])[H])c([H])c([H])c1F

$$$$
Z107740192_pose4
     RDKit          3D

 54 57  0  0  0  0  0  0  0  0999 V2000
    5.7726   45.5374   57.1059 N   0  0  0  0  0  0  0  0  0  0  0  0
    5.3640   45.3312   56.0373 C   0  0  0  0  0  0  0  0  0  0  0  0
    4.7511   45.0862   54.7363 C   0  0  1  0  0  0  0  0  0  0  0  0
    3.2636   44.8582   54.7620 C   0  0  0  0  0  0  0  0  0  0  0  0
    2.4960   45.7203   55.4851 N   0  0  0  0  0  0  0  0  0  0  0  0
    1.1761   45.4753   55.5483 C   0  0  0  0  0  0  0  0  0  0  0  0
    0.3478   46.3299   56.2672 C   0  0  0  0  0  0  0  0  0  0  0  0
   -1.0246   46.1007   56.3594 C   0  0  0  0  0  0  0  0  0  0  0  0
   -1.5785   44.9972   55.7222 C   0  0  0  0  0  0  0  0  0  0  0  0
   -0.7542   44.1349   54.9989 C   0  0  0  0  0  0  0  0  0  0  0  0
    0.6156   44.3550   54.9002 C   0  0  0  0  0  0  0  0  0  0  0  0
    1.3798   43.5023   54.1926 N   0  0  0  0  0  0  0  0  0  0  0  0
    2.7029   43.7511   54.1018 C   0  0  0  0  0  0  0  0  0  0  0  0
    3.5249   42.8850   53.3506 N   0  0  0  0  0  0  0  0  0  0  0  0
    3.1683   42.8006   51.9288 C   0  0  0  0  0  0  0  0  0  0  0  0
    4.4428   42.6921   51.0700 C   0  0  0  0  0  0  0  0  0  0  0  0
    4.6277   43.8856   50.1235 C   0  0  0  0  0  0  0  0  0  0  0  0
    5.9510   43.8084   49.3571 C   0  0  0  0  0  0  0  0  0  0  0  0
    6.4540   42.3818   49.1399 C   0  0  0  0  0  0  0  0  0  0  0  0
    5.3030   41.3953   49.0150 C   0  0  0  0  0  0  0  0  0  0  0  0
    4.4242   41.3740   50.2690 C   0  0  0  0  0  0  0  0  0  0  0  0
    5.0489   46.5368   53.7449 S   0  0  0  0  0  0  0  0  0  0  0  0
    5.0664   47.7366   54.5612 O   0  0  0  0  0  0  0  0  0  0  0  0
    4.1956   46.4905   52.5635 O   0  0  0  0  0  0  0  0  0  0  0  0
    6.7099   46.3069   53.1202 C   0  0  0  0  0  0  0  0  0  0  0  0
    7.5759   47.4035   53.0288 C   0  0  0  0  0  0  0  0  0  0  0  0
    8.8632   47.2154   52.5256 C   0  0  0  0  0  0  0  0  0  0  0  0
    9.2638   45.9489   52.1109 C   0  0  0  0  0  0  0  0  0  0  0  0
   10.4994   45.7733   51.6251 F   0  0  0  0  0  0  0  0  0  0  0  0
    8.3970   44.8612   52.1824 C   0  0  0  0  0  0  0  0  0  0  0  0
    7.1077   45.0363   52.6855 C   0  0  0  0  0  0  0  0  0  0  0  0
    5.1980   44.1610   54.3434 H   0  0  0  0  0  0  0  0  0  0  0  0
    0.7836   47.2039   56.7732 H   0  0  0  0  0  0  0  0  0  0  0  0
   -1.6639   46.7884   56.9323 H   0  0  0  0  0  0  0  0  0  0  0  0
   -2.6595   44.8048   55.7876 H   0  0  0  0  0  0  0  0  0  0  0  0
   -1.1969   43.2625   54.4961 H   0  0  0  0  0  0  0  0  0  0  0  0
    4.4899   43.2306   53.4388 H   0  0  0  0  0  0  0  0  0  0  0  0
    2.5409   41.9124   51.7630 H   0  0  0  0  0  0  0  0  0  0  0  0
    2.6160   43.7073   51.6412 H   0  0  0  0  0  0  0  0  0  0  0  0
    5.2997   42.6995   51.7597 H   0  0  0  0  0  0  0  0  0  0  0  0
    3.7986   43.8978   49.4007 H   0  0  0  0  0  0  0  0  0  0  0  0
    4.6389   44.8029   50.7305 H   0  0  0  0  0  0  0  0  0  0  0  0
    5.8105   44.2804   48.3735 H   0  0  0  0  0  0  0  0  0  0  0  0
    6.7061   44.3255   49.9674 H   0  0  0  0  0  0  0  0  0  0  0  0
    7.0524   42.3508   48.2174 H   0  0  0  0  0  0  0  0  0  0  0  0
    7.0605   42.0944   50.0114 H   0  0  0  0  0  0  0  0  0  0  0  0
    4.6832   41.6808   48.1522 H   0  0  0  0  0  0  0  0  0  0  0  0
    5.7308   40.3904   48.8839 H   0  0  0  0  0  0  0  0  0  0  0  0
    3.3877   41.1706   49.9617 H   0  0  0  0  0  0  0  0  0  0  0  0
    4.8307   40.5941   50.9296 H   0  0  0  0  0  0  0  0  0  0  0  0
    7.2447   48.4021   53.3502 H   0  0  0  0  0  0  0  0  0  0  0  0
    9.5589   48.0648   52.4569 H   0  0  0  0  0  0  0  0  0  0  0  0
    8.7276   43.8683   51.8435 H   0  0  0  0  0  0  0  0  0  0  0  0
    6.4116   44.1863   52.7402 H   0  0  0  0  0  0  0  0  0  0  0  0
  1  2  3  0
  2  3  1  0
  3  4  1  0
  4  5  2  0
  5  6  1  0
  6  7  2  0
  7  8  1  0
  8  9  2  0
  9 10  1  0
 10 11  2  0
 11 12  1  0
 12 13  2  0
 13 14  1  0
 14 15  1  0
 15 16  1  0
 16 17  1  0
 17 18  1  0
 18 19  1  0
 19 20  1  0
 20 21  1  0
  3 22  1  0
 22 23  2  0
 22 24  2  0
 22 25  1  0
 25 26  2  0
 26 27  1  0
 27 28  2  0
 28 29  1  0
 28 30  1  0
 30 31  2  0
 13  4  1  0
 21 16  1  0
 31 25  1  0
 11  6  1  0
  3 32  1  6
  7 33  1  0
  8 34  1  0
  9 35  1  0
 10 36  1  0
 14 37  1  0
 15 38  1  0
 15 39  1  0
 16 40  1  0
 17 41  1  0
 17 42  1  0
 18 43  1  0
 18 44  1  0
 19 45  1  0
 19 46  1  0
 20 47  1  0
 20 48  1  0
 21 49  1  0
 21 50  1  0
 26 51  1  0
 27 52  1  0
 30 53  1  0
 31 54  1  0
M  END
>  <meeko>  (5) 
{"is_sidechain": false}

>  <CID>  (5) 
Z107740192

>  <pose_index>  (5) 
4

>  <docking_score>  (5) 
-8.749

>  <rmsd_to_best_selected>  (5) 
1.2266749487066417

>  <MWT>  (5) 
438.52799999999974

>  <TPSA>  (5) 
95.74000000000001

>  <logP>  (5) 
4.799680000000004

>  <HBD>  (5) 
1

>  <HBA>  (5) 
6

>  <SMILES>  (5) 
[H]c1c([H])c(S(=O)(=O)C([H])(C#N)c2nc3c([H])c([H])c([H])c([H])c3nc2N([H])C([H])([H])C2([H])C([H])([H])C([H])([H])C([H])([H])C([H])([H])C2([H])[H])c([H])c([H])c1F

$$$$
Z107740192_pose5
     RDKit          3D

 54 57  0  0  0  0  0  0  0  0999 V2000
    5.8080   46.3273   56.9679 N   0  0  0  0  0  0  0  0  0  0  0  0
    5.3576   45.9483   55.9659 C   0  0  0  0  0  0  0  0  0  0  0  0
    4.8914   45.4450   54.6774 C   0  0  1  0  0  0  0  0  0  0  0  0
    3.4446   45.0321   54.6351 C   0  0  0  0  0  0  0  0  0  0  0  0
    2.5106   45.9338   55.0473 N   0  0  0  0  0  0  0  0  0  0  0  0
    1.2262   45.5375   55.0603 C   0  0  0  0  0  0  0  0  0  0  0  0
    0.2328   46.4224   55.4646 C   0  0  0  0  0  0  0  0  0  0  0  0
   -1.1087   46.0412   55.4961 C   0  0  0  0  0  0  0  0  0  0  0  0
   -1.4620   44.7519   55.1185 C   0  0  0  0  0  0  0  0  0  0  0  0
   -0.4710   43.8579   54.7111 C   0  0  0  0  0  0  0  0  0  0  0  0
    0.8693   44.2286   54.6748 C   0  0  0  0  0  0  0  0  0  0  0  0
    1.7972   43.3393   54.2746 N   0  0  0  0  0  0  0  0  0  0  0  0
    3.0868   43.7331   54.2352 C   0  0  0  0  0  0  0  0  0  0  0  0
    4.0790   42.8290   53.8013 N   0  0  0  0  0  0  0  0  0  0  0  0
    3.6327   41.9047   52.7518 C   0  0  0  0  0  0  0  0  0  0  0  0
    4.5415   42.0324   51.5142 C   0  0  0  0  0  0  0  0  0  0  0  0
    4.9430   43.4837   51.2173 C   0  0  0  0  0  0  0  0  0  0  0  0
    5.9273   43.5769   50.0480 C   0  0  0  0  0  0  0  0  0  0  0  0
    5.7918   42.4391   49.0367 C   0  0  0  0  0  0  0  0  0  0  0  0
    4.3582   41.9395   48.9451 C   0  0  0  0  0  0  0  0  0  0  0  0
    3.8462   41.4092   50.2869 C   0  0  0  0  0  0  0  0  0  0  0  0
    5.1021   46.7677   53.5023 S   0  0  0  0  0  0  0  0  0  0  0  0
    5.0307   48.0634   54.1502 O   0  0  0  0  0  0  0  0  0  0  0  0
    4.2650   46.5065   52.3367 O   0  0  0  0  0  0  0  0  0  0  0  0
    6.7805   46.5699   52.9158 C   0  0  0  0  0  0  0  0  0  0  0  0
    7.0277   46.4528   51.5416 C   0  0  0  0  0  0  0  0  0  0  0  0
    8.3395   46.2836   51.0971 C   0  0  0  0  0  0  0  0  0  0  0  0
    9.3784   46.2206   52.0214 C   0  0  0  0  0  0  0  0  0  0  0  0
   10.6356   46.0542   51.5898 F   0  0  0  0  0  0  0  0  0  0  0  0
    9.1324   46.3173   53.3887 C   0  0  0  0  0  0  0  0  0  0  0  0
    7.8250   46.4882   53.8455 C   0  0  0  0  0  0  0  0  0  0  0  0
    5.4753   44.5386   54.4600 H   0  0  0  0  0  0  0  0  0  0  0  0
    0.5103   47.4434   55.7657 H   0  0  0  0  0  0  0  0  0  0  0  0
   -1.8807   46.7558   55.8175 H   0  0  0  0  0  0  0  0  0  0  0  0
   -2.5160   44.4377   55.1405 H   0  0  0  0  0  0  0  0  0  0  0  0
   -0.7557   42.8382   54.4122 H   0  0  0  0  0  0  0  0  0  0  0  0
    4.8670   43.3892   53.4487 H   0  0  0  0  0  0  0  0  0  0  0  0
    3.6777   40.8734   53.1316 H   0  0  0  0  0  0  0  0  0  0  0  0
    2.5996   42.1535   52.4676 H   0  0  0  0  0  0  0  0  0  0  0  0
    5.4700   41.4858   51.7359 H   0  0  0  0  0  0  0  0  0  0  0  0
    4.0391   44.0586   50.9677 H   0  0  0  0  0  0  0  0  0  0  0  0
    5.4375   43.8900   52.1119 H   0  0  0  0  0  0  0  0  0  0  0  0
    5.7550   44.5288   49.5245 H   0  0  0  0  0  0  0  0  0  0  0  0
    6.9391   43.5086   50.4742 H   0  0  0  0  0  0  0  0  0  0  0  0
    6.1076   42.8014   48.0473 H   0  0  0  0  0  0  0  0  0  0  0  0
    6.4264   41.6048   49.3704 H   0  0  0  0  0  0  0  0  0  0  0  0
    3.7131   42.7701   48.6225 H   0  0  0  0  0  0  0  0  0  0  0  0
    4.3338   41.1110   48.2219 H   0  0  0  0  0  0  0  0  0  0  0  0
    2.7690   41.6219   50.3545 H   0  0  0  0  0  0  0  0  0  0  0  0
    4.0674   40.3319   50.3086 H   0  0  0  0  0  0  0  0  0  0  0  0
    6.1972   46.4940   50.8214 H   0  0  0  0  0  0  0  0  0  0  0  0
    8.5518   46.2002   50.0209 H   0  0  0  0  0  0  0  0  0  0  0  0
    9.9649   46.2593   54.1053 H   0  0  0  0  0  0  0  0  0  0  0  0
    7.6170   46.5580   54.9234 H   0  0  0  0  0  0  0  0  0  0  0  0
  1  2  3  0
  2  3  1  0
  3  4  1  0
  4  5  2  0
  5  6  1  0
  6  7  2  0
  7  8  1  0
  8  9  2  0
  9 10  1  0
 10 11  2  0
 11 12  1  0
 12 13  2  0
 13 14  1  0
 14 15  1  0
 15 16  1  0
 16 17  1  0
 17 18  1  0
 18 19  1  0
 19 20  1  0
 20 21  1  0
  3 22  1  0
 22 23  2  0
 22 24  2  0
 22 25  1  0
 25 26  2  0
 26 27  1  0
 27 28  2  0
 28 29  1  0
 28 30  1  0
 30 31  2  0
 13  4  1  0
 21 16  1  0
 31 25  1  0
 11  6  1  0
  3 32  1  6
  7 33  1  0
  8 34  1  0
  9 35  1  0
 10 36  1  0
 14 37  1  0
 15 38  1  0
 15 39  1  0
 16 40  1  0
 17 41  1  0
 17 42  1  0
 18 43  1  0
 18 44  1  0
 19 45  1  0
 19 46  1  0
 20 47  1  0
 20 48  1  0
 21 49  1  0
 21 50  1  0
 26 51  1  0
 27 52  1  0
 30 53  1  0
 31 54  1  0
M  END
>  <meeko>  (6) 
{"is_sidechain": false}

>  <CID>  (6) 
Z107740192

>  <pose_index>  (6) 
5

>  <docking_score>  (6) 
-8.649

>  <rmsd_to_best_selected>  (6) 
1.3132972046596199

>  <MWT>  (6) 
438.52799999999974

>  <TPSA>  (6) 
95.74000000000001

>  <logP>  (6) 
4.799680000000004

>  <HBD>  (6) 
1

>  <HBA>  (6) 
6

>  <SMILES>  (6) 
[H]c1c([H])c(S(=O)(=O)C([H])(C#N)c2nc3c([H])c([H])c([H])c([H])c3nc2N([H])C([H])([H])C2([H])C([H])([H])C([H])([H])C([H])([H])C([H])([H])C2([H])[H])c([H])c([H])c1F

$$$$
