Z1192499493_pose1
     RDKit          3D

 39 41  0  0  0  0  0  0  0  0999 V2000
    3.6450   46.8320   52.5640 O   0  0  0  0  0  0  0  0  0  0  0  0
    4.5270   46.3750   53.2860 C   0  0  0  0  0  0  0  0  0  0  0  0
    5.1480   47.2230   54.4030 C   0  0  0  0  0  0  0  0  0  0  0  0
    6.3190   46.6080   54.9310 O   0  0  0  0  0  0  0  0  0  0  0  0
    7.5490   47.2260   54.5450 C   0  0  0  0  0  0  0  0  0  0  0  0
    8.4690   46.3940   53.6380 C   0  0  2  0  0  0  0  0  0  0  0  0
    9.8670   46.9480   53.4070 C   0  0  0  0  0  0  0  0  0  0  0  0
   10.2460   46.2770   52.1100 C   0  0  0  0  0  0  0  0  0  0  0  0
    8.9310   46.2670   51.3580 C   0  0  0  0  0  0  0  0  0  0  0  0
    7.8900   46.1770   52.3390 O   0  0  0  0  0  0  0  0  0  0  0  0
    5.0900   45.1150   53.2160 N   0  0  0  0  0  0  0  0  0  0  0  0
    4.7910   44.0710   52.3270 C   0  0  0  0  0  0  0  0  0  0  0  0
    3.6720   43.2410   52.4470 C   0  0  0  0  0  0  0  0  0  0  0  0
    3.4390   42.2170   51.5180 C   0  0  0  0  0  0  0  0  0  0  0  0
    4.3150   42.0060   50.4560 C   0  0  0  0  0  0  0  0  0  0  0  0
    4.0480   40.9700   49.5430 N   0  0  0  0  0  0  0  0  0  0  0  0
    4.8800   40.8050   48.5730 C   0  0  0  0  0  0  0  0  0  0  0  0
    5.9950   41.5680   48.3800 N   0  0  0  0  0  0  0  0  0  0  0  0
    6.3440   42.5990   49.2130 C   0  0  0  0  0  0  0  0  0  0  0  0
    7.3510   43.2730   49.0310 O   0  0  0  0  0  0  0  0  0  0  0  0
    5.4290   42.8400   50.3430 C   0  0  0  0  0  0  0  0  0  0  0  0
    5.6740   43.8660   51.2630 C   0  0  0  0  0  0  0  0  0  0  0  0
    5.4139   48.2103   53.9973 H   0  0  0  0  0  0  0  0  0  0  0  0
    4.4117   47.3204   55.2144 H   0  0  0  0  0  0  0  0  0  0  0  0
    7.3046   48.1569   54.0123 H   0  0  0  0  0  0  0  0  0  0  0  0
    8.1108   47.3740   55.4791 H   0  0  0  0  0  0  0  0  0  0  0  0
    8.5707   45.4612   54.2121 H   0  0  0  0  0  0  0  0  0  0  0  0
    9.8533   48.0431   53.3038 H   0  0  0  0  0  0  0  0  0  0  0  0
   10.5677   46.7557   54.2329 H   0  0  0  0  0  0  0  0  0  0  0  0
   11.0098   46.8558   51.5699 H   0  0  0  0  0  0  0  0  0  0  0  0
   10.6863   45.2777   52.2423 H   0  0  0  0  0  0  0  0  0  0  0  0
    8.8219   47.1933   50.7748 H   0  0  0  0  0  0  0  0  0  0  0  0
    8.8852   45.4205   50.6571 H   0  0  0  0  0  0  0  0  0  0  0  0
    5.8070   44.9510   53.9220 H   0  0  0  0  0  0  0  0  0  0  0  0
    2.9678   43.3929   53.2782 H   0  0  0  0  0  0  0  0  0  0  0  0
    2.5542   41.5729   51.6292 H   0  0  0  0  0  0  0  0  0  0  0  0
    4.6786   39.9971   47.8542 H   0  0  0  0  0  0  0  0  0  0  0  0
    6.6140   41.3930   47.6010 H   0  0  0  0  0  0  0  0  0  0  0  0
    6.5590   44.5092   51.1490 H   0  0  0  0  0  0  0  0  0  0  0  0
  1  2  2  0
  2  3  1  0
  3  4  1  0
  4  5  1  0
  5  6  1  0
  6  7  1  0
  7  8  1  0
  8  9  1  0
  9 10  1  0
  2 11  1  0
 11 12  1  0
 12 13  2  0
 13 14  1  0
 14 15  2  0
 15 16  1  0
 16 17  2  0
 17 18  1  0
 18 19  1  0
 19 20  2  0
 19 21  1  0
 21 22  2  0
 10  6  1  0
 22 12  1  0
 21 15  1  0
  3 23  1  0
  3 24  1  0
  5 25  1  0
  5 26  1  0
  6 27  1  1
  7 28  1  0
  7 29  1  0
  8 30  1  0
  8 31  1  0
  9 32  1  0
  9 33  1  0
 11 34  1  0
 13 35  1  0
 14 36  1  0
 17 37  1  0
 18 38  1  0
 22 39  1  0
M  END
>  <meeko>  (1) 
{"is_sidechain": false}

>  <CID>  (1) 
Z1192499493

>  <pose_index>  (1) 
1

>  <docking_score>  (1) 
-8.103

>  <rmsd_to_best_selected>  (1) 
0.0

>  <MWT>  (1) 
303.3179999999997

>  <TPSA>  (1) 
93.31

>  <logP>  (1) 
1.0572

>  <HBD>  (1) 
2

>  <HBA>  (1) 
5

>  <SMILES>  (1) 
[H]c1c(N([H])C(=O)C([H])([H])OC([H])([H])C2([H])OC([H])([H])C([H])([H])C2([H])[H])c([H])c2c(=O)n([H])c([H])nc2c1[H]

$$$$
Z1192499493_pose2
     RDKit          3D

 39 41  0  0  0  0  0  0  0  0999 V2000
    3.9546   46.8101   53.4640 O   0  0  0  0  0  0  0  0  0  0  0  0
    4.8523   46.1852   54.0220 C   0  0  0  0  0  0  0  0  0  0  0  0
    5.5136   46.7249   55.2964 C   0  0  0  0  0  0  0  0  0  0  0  0
    6.9036   46.9629   55.0999 O   0  0  0  0  0  0  0  0  0  0  0  0
    7.2264   47.6967   53.9155 C   0  0  0  0  0  0  0  0  0  0  0  0
    8.4219   47.1776   53.1014 C   0  0  2  0  0  0  0  0  0  0  0  0
    8.1091   46.6416   51.7133 C   0  0  0  0  0  0  0  0  0  0  0  0
    9.2928   45.7379   51.4665 C   0  0  0  0  0  0  0  0  0  0  0  0
    9.5387   45.1499   52.8401 C   0  0  0  0  0  0  0  0  0  0  0  0
    9.1350   46.1395   53.7954 O   0  0  0  0  0  0  0  0  0  0  0  0
    5.4017   44.9811   53.6220 N   0  0  0  0  0  0  0  0  0  0  0  0
    5.0678   44.1947   52.5082 C   0  0  0  0  0  0  0  0  0  0  0  0
    3.7609   43.8190   52.1840 C   0  0  0  0  0  0  0  0  0  0  0  0
    3.5037   43.0307   51.0532 C   0  0  0  0  0  0  0  0  0  0  0  0
    4.5441   42.6058   50.2296 C   0  0  0  0  0  0  0  0  0  0  0  0
    4.2489   41.8161   49.1037 N   0  0  0  0  0  0  0  0  0  0  0  0
    5.2359   41.4437   48.3648 C   0  0  0  0  0  0  0  0  0  0  0  0
    6.5402   41.7649   48.6072 N   0  0  0  0  0  0  0  0  0  0  0  0
    6.9311   42.5262   49.6774 C   0  0  0  0  0  0  0  0  0  0  0  0
    8.1075   42.8029   49.8861 O   0  0  0  0  0  0  0  0  0  0  0  0
    5.8464   42.9865   50.5605 C   0  0  0  0  0  0  0  0  0  0  0  0
    6.1170   43.7740   51.6866 C   0  0  0  0  0  0  0  0  0  0  0  0
    5.0256   47.6689   55.5805 H   0  0  0  0  0  0  0  0  0  0  0  0
    5.4002   45.9723   56.0905 H   0  0  0  0  0  0  0  0  0  0  0  0
    6.3427   47.6827   53.2606 H   0  0  0  0  0  0  0  0  0  0  0  0
    7.5180   48.6996   54.2605 H   0  0  0  0  0  0  0  0  0  0  0  0
    9.0254   48.0889   52.9782 H   0  0  0  0  0  0  0  0  0  0  0  0
    7.1643   46.0783   51.7035 H   0  0  0  0  0  0  0  0  0  0  0  0
    7.9741   47.4227   50.9506 H   0  0  0  0  0  0  0  0  0  0  0  0
    9.0498   44.9535   50.7346 H   0  0  0  0  0  0  0  0  0  0  0  0
   10.1658   46.2589   51.0465 H   0  0  0  0  0  0  0  0  0  0  0  0
    8.9448   44.2334   52.9710 H   0  0  0  0  0  0  0  0  0  0  0  0
   10.5984   44.8856   52.9711 H   0  0  0  0  0  0  0  0  0  0  0  0
    6.1372   44.6456   54.2417 H   0  0  0  0  0  0  0  0  0  0  0  0
    2.9263   44.1450   52.8220 H   0  0  0  0  0  0  0  0  0  0  0  0
    2.4689   42.7445   50.8137 H   0  0  0  0  0  0  0  0  0  0  0  0
    5.0135   40.8271   47.4815 H   0  0  0  0  0  0  0  0  0  0  0  0
    7.2749   41.4436   47.9929 H   0  0  0  0  0  0  0  0  0  0  0  0
    7.1523   44.0605   51.9236 H   0  0  0  0  0  0  0  0  0  0  0  0
  1  2  2  0
  2  3  1  0
  3  4  1  0
  4  5  1  0
  5  6  1  0
  6  7  1  0
  7  8  1  0
  8  9  1  0
  9 10  1  0
  2 11  1  0
 11 12  1  0
 12 13  2  0
 13 14  1  0
 14 15  2  0
 15 16  1  0
 16 17  2  0
 17 18  1  0
 18 19  1  0
 19 20  2  0
 19 21  1  0
 21 22  2  0
 10  6  1  0
 22 12  1  0
 21 15  1  0
  3 23  1  0
  3 24  1  0
  5 25  1  0
  5 26  1  0
  6 27  1  6
  7 28  1  0
  7 29  1  0
  8 30  1  0
  8 31  1  0
  9 32  1  0
  9 33  1  0
 11 34  1  0
 13 35  1  0
 14 36  1  0
 17 37  1  0
 18 38  1  0
 22 39  1  0
M  END
>  <meeko>  (2) 
{"is_sidechain": false}

>  <CID>  (2) 
Z1192499493

>  <pose_index>  (2) 
2

>  <docking_score>  (2) 
-7.96

>  <rmsd_to_best_selected>  (2) 
1.6600057750378636

>  <MWT>  (2) 
303.3179999999997

>  <TPSA>  (2) 
93.31

>  <logP>  (2) 
1.0572

>  <HBD>  (2) 
2

>  <HBA>  (2) 
5

>  <SMILES>  (2) 
[H]c1c(N([H])C(=O)C([H])([H])OC([H])([H])C2([H])OC([H])([H])C([H])([H])C2([H])[H])c([H])c2c(=O)n([H])c([H])nc2c1[H]

$$$$
Z1192499493_pose3
     RDKit          3D

 39 41  0  0  0  0  0  0  0  0999 V2000
    4.4033   47.0138   52.6671 O   0  0  0  0  0  0  0  0  0  0  0  0
    4.9306   46.3580   53.5599 C   0  0  0  0  0  0  0  0  0  0  0  0
    5.3749   47.0223   54.8683 C   0  0  0  0  0  0  0  0  0  0  0  0
    6.7869   46.9495   55.0363 O   0  0  0  0  0  0  0  0  0  0  0  0
    7.5399   47.7953   54.1634 C   0  0  0  0  0  0  0  0  0  0  0  0
    8.6482   47.1128   53.3472 C   0  0  2  0  0  0  0  0  0  0  0  0
    8.3187   46.7962   51.8961 C   0  0  0  0  0  0  0  0  0  0  0  0
    9.2981   45.6865   51.6007 C   0  0  0  0  0  0  0  0  0  0  0  0
    9.3252   44.9261   52.9111 C   0  0  0  0  0  0  0  0  0  0  0  0
    9.0801   45.8812   53.9522 O   0  0  0  0  0  0  0  0  0  0  0  0
    5.2150   45.0053   53.5429 N   0  0  0  0  0  0  0  0  0  0  0  0
    4.9679   44.0718   52.5227 C   0  0  0  0  0  0  0  0  0  0  0  0
    3.8637   43.2150   52.5020 C   0  0  0  0  0  0  0  0  0  0  0  0
    3.6835   42.3092   51.4476 C   0  0  0  0  0  0  0  0  0  0  0  0
    4.5993   42.2431   50.4003 C   0  0  0  0  0  0  0  0  0  0  0  0
    4.3849   41.3215   49.3595 N   0  0  0  0  0  0  0  0  0  0  0  0
    5.2531   41.2901   48.4073 C   0  0  0  0  0  0  0  0  0  0  0  0
    6.3573   42.0887   48.3485 N   0  0  0  0  0  0  0  0  0  0  0  0
    6.6559   43.0156   49.3127 C   0  0  0  0  0  0  0  0  0  0  0  0
    7.6542   43.7235   49.2498 O   0  0  0  0  0  0  0  0  0  0  0  0
    5.6989   43.1032   50.4284 C   0  0  0  0  0  0  0  0  0  0  0  0
    5.8913   44.0131   51.4756 C   0  0  0  0  0  0  0  0  0  0  0  0
    5.0705   48.0792   54.8540 H   0  0  0  0  0  0  0  0  0  0  0  0
    4.8995   46.4895   55.7050 H   0  0  0  0  0  0  0  0  0  0  0  0
    6.8369   48.2569   53.4544 H   0  0  0  0  0  0  0  0  0  0  0  0
    8.0563   48.5109   54.8201 H   0  0  0  0  0  0  0  0  0  0  0  0
    9.4369   47.8795   53.3496 H   0  0  0  0  0  0  0  0  0  0  0  0
    7.2789   46.4547   51.7854 H   0  0  0  0  0  0  0  0  0  0  0  0
    8.4008   47.6591   51.2189 H   0  0  0  0  0  0  0  0  0  0  0  0
    8.9426   45.0496   50.7773 H   0  0  0  0  0  0  0  0  0  0  0  0
   10.2867   46.0445   51.2775 H   0  0  0  0  0  0  0  0  0  0  0  0
    8.5432   44.1525   52.9158 H   0  0  0  0  0  0  0  0  0  0  0  0
   10.2941   44.4259   53.0560 H   0  0  0  0  0  0  0  0  0  0  0  0
    5.6546   44.6716   54.3998 H   0  0  0  0  0  0  0  0  0  0  0  0
    3.1297   43.2519   53.3204 H   0  0  0  0  0  0  0  0  0  0  0  0
    2.8084   41.6428   51.4473 H   0  0  0  0  0  0  0  0  0  0  0  0
    5.0932   40.5726   47.5890 H   0  0  0  0  0  0  0  0  0  0  0  0
    7.0057   42.0205   47.5767 H   0  0  0  0  0  0  0  0  0  0  0  0
    6.7665   44.6794   51.4738 H   0  0  0  0  0  0  0  0  0  0  0  0
  1  2  2  0
  2  3  1  0
  3  4  1  0
  4  5  1  0
  5  6  1  0
  6  7  1  0
  7  8  1  0
  8  9  1  0
  9 10  1  0
  2 11  1  0
 11 12  1  0
 12 13  2  0
 13 14  1  0
 14 15  2  0
 15 16  1  0
 16 17  2  0
 17 18  1  0
 18 19  1  0
 19 20  2  0
 19 21  1  0
 21 22  2  0
 10  6  1  0
 22 12  1  0
 21 15  1  0
  3 23  1  0
  3 24  1  0
  5 25  1  0
  5 26  1  0
  6 27  1  6
  7 28  1  0
  7 29  1  0
  8 30  1  0
  8 31  1  0
  9 32  1  0
  9 33  1  0
 11 34  1  0
 13 35  1  0
 14 36  1  0
 17 37  1  0
 18 38  1  0
 22 39  1  0
M  END
>  <meeko>  (3) 
{"is_sidechain": false}

>  <CID>  (3) 
Z1192499493

>  <pose_index>  (3) 
3

>  <docking_score>  (3) 
-7.833

>  <rmsd_to_best_selected>  (3) 
1.4740198979355443

>  <MWT>  (3) 
303.3179999999997

>  <TPSA>  (3) 
93.31

>  <logP>  (3) 
1.0572

>  <HBD>  (3) 
2

>  <HBA>  (3) 
5

>  <SMILES>  (3) 
[H]c1c(N([H])C(=O)C([H])([H])OC([H])([H])C2([H])OC([H])([H])C([H])([H])C2([H])[H])c([H])c2c(=O)n([H])c([H])nc2c1[H]

$$$$
Z1192499493_pose4
     RDKit          3D

 39 41  0  0  0  0  0  0  0  0999 V2000
    4.2215   46.8622   52.1949 O   0  0  0  0  0  0  0  0  0  0  0  0
    4.7958   46.3208   53.1361 C   0  0  0  0  0  0  0  0  0  0  0  0
    5.2947   47.1417   54.3316 C   0  0  0  0  0  0  0  0  0  0  0  0
    6.4624   47.8850   54.0014 O   0  0  0  0  0  0  0  0  0  0  0  0
    7.6574   47.4506   54.6566 C   0  0  0  0  0  0  0  0  0  0  0  0
    8.7147   46.7819   53.7650 C   0  0  2  0  0  0  0  0  0  0  0  0
    9.4820   47.7018   52.8272 C   0  0  0  0  0  0  0  0  0  0  0  0
    9.9482   46.7316   51.7691 C   0  0  0  0  0  0  0  0  0  0  0  0
    8.7676   45.7882   51.6581 C   0  0  0  0  0  0  0  0  0  0  0  0
    8.1510   45.7386   52.9516 O   0  0  0  0  0  0  0  0  0  0  0  0
    5.0921   44.9777   53.2694 N   0  0  0  0  0  0  0  0  0  0  0  0
    4.8068   43.9265   52.3831 C   0  0  0  0  0  0  0  0  0  0  0  0
    3.6899   43.0942   52.4968 C   0  0  0  0  0  0  0  0  0  0  0  0
    3.4698   42.0629   51.5715 C   0  0  0  0  0  0  0  0  0  0  0  0
    4.3598   41.8477   50.5216 C   0  0  0  0  0  0  0  0  0  0  0  0
    4.1074   40.8041   49.6130 N   0  0  0  0  0  0  0  0  0  0  0  0
    4.9503   40.6365   48.6534 C   0  0  0  0  0  0  0  0  0  0  0  0
    6.0650   41.4012   48.4686 N   0  0  0  0  0  0  0  0  0  0  0  0
    6.4012   42.4384   49.2984 C   0  0  0  0  0  0  0  0  0  0  0  0
    7.4082   43.1146   49.1243 O   0  0  0  0  0  0  0  0  0  0  0  0
    5.4722   42.6838   50.4153 C   0  0  0  0  0  0  0  0  0  0  0  0
    5.7036   43.7176   51.3320 C   0  0  0  0  0  0  0  0  0  0  0  0
    4.5026   47.8391   54.6421 H   0  0  0  0  0  0  0  0  0  0  0  0
    5.5458   46.4475   55.1471 H   0  0  0  0  0  0  0  0  0  0  0  0
    8.1218   48.3305   55.1257 H   0  0  0  0  0  0  0  0  0  0  0  0
    7.3380   46.6743   55.3674 H   0  0  0  0  0  0  0  0  0  0  0  0
    9.4262   46.3935   54.5085 H   0  0  0  0  0  0  0  0  0  0  0  0
    8.8285   48.4774   52.4013 H   0  0  0  0  0  0  0  0  0  0  0  0
   10.2954   48.2606   53.3131 H   0  0  0  0  0  0  0  0  0  0  0  0
   10.1405   47.2440   50.8149 H   0  0  0  0  0  0  0  0  0  0  0  0
   10.8942   46.2281   52.0174 H   0  0  0  0  0  0  0  0  0  0  0  0
    8.0519   46.1642   50.9121 H   0  0  0  0  0  0  0  0  0  0  0  0
    9.0922   44.7872   51.3380 H   0  0  0  0  0  0  0  0  0  0  0  0
    5.5740   44.7530   54.1395 H   0  0  0  0  0  0  0  0  0  0  0  0
    2.9766   43.2492   53.3197 H   0  0  0  0  0  0  0  0  0  0  0  0
    2.5851   41.4176   51.6760 H   0  0  0  0  0  0  0  0  0  0  0  0
    4.7589   39.8244   47.9365 H   0  0  0  0  0  0  0  0  0  0  0  0
    6.6940   41.2226   47.6977 H   0  0  0  0  0  0  0  0  0  0  0  0
    6.5882   44.3627   51.2247 H   0  0  0  0  0  0  0  0  0  0  0  0
  1  2  2  0
  2  3  1  0
  3  4  1  0
  4  5  1  0
  5  6  1  0
  6  7  1  0
  7  8  1  0
  8  9  1  0
  9 10  1  0
  2 11  1  0
 11 12  1  0
 12 13  2  0
 13 14  1  0
 14 15  2  0
 15 16  1  0
 16 17  2  0
 17 18  1  0
 18 19  1  0
 19 20  2  0
 19 21  1  0
 21 22  2  0
 10  6  1  0
 22 12  1  0
 21 15  1  0
  3 23  1  0
  3 24  1  0
  5 25  1  0
  5 26  1  0
  6 27  1  1
  7 28  1  0
  7 29  1  0
  8 30  1  0
  8 31  1  0
  9 32  1  0
  9 33  1  0
 11 34  1  0
 13 35  1  0
 14 36  1  0
 17 37  1  0
 18 38  1  0
 22 39  1  0
M  END
>  <meeko>  (4) 
{"is_sidechain": false}

>  <CID>  (4) 
Z1192499493

>  <pose_index>  (4) 
4

>  <docking_score>  (4) 
-7.542

>  <rmsd_to_best_selected>  (4) 
0.7463214846405395

>  <MWT>  (4) 
303.3179999999997

>  <TPSA>  (4) 
93.31

>  <logP>  (4) 
1.0572

>  <HBD>  (4) 
2

>  <HBA>  (4) 
5

>  <SMILES>  (4) 
[H]c1c(N([H])C(=O)C([H])([H])OC([H])([H])C2([H])OC([H])([H])C([H])([H])C2([H])[H])c([H])c2c(=O)n([H])c([H])nc2c1[H]

$$$$
Z1192499493_pose5
     RDKit          3D

 39 41  0  0  0  0  0  0  0  0999 V2000
    4.9119   44.1586   55.1131 O   0  0  0  0  0  0  0  0  0  0  0  0
    5.1586   45.1152   54.3839 C   0  0  0  0  0  0  0  0  0  0  0  0
    5.5770   46.4674   54.9735 C   0  0  0  0  0  0  0  0  0  0  0  0
    5.9874   47.3738   53.9551 O   0  0  0  0  0  0  0  0  0  0  0  0
    7.3015   47.9122   54.1225 C   0  0  0  0  0  0  0  0  0  0  0  0
    8.4543   47.0768   53.5449 C   0  0  2  0  0  0  0  0  0  0  0  0
    9.5525   47.8485   52.8303 C   0  0  0  0  0  0  0  0  0  0  0  0
   10.1410   46.7808   51.9410 C   0  0  0  0  0  0  0  0  0  0  0  0
    8.9146   45.9899   51.5359 C   0  0  0  0  0  0  0  0  0  0  0  0
    7.9846   46.0767   52.6240 O   0  0  0  0  0  0  0  0  0  0  0  0
    5.0929   45.1487   53.0034 N   0  0  0  0  0  0  0  0  0  0  0  0
    4.7414   44.1175   52.1189 C   0  0  0  0  0  0  0  0  0  0  0  0
    3.4629   43.5548   52.0473 C   0  0  0  0  0  0  0  0  0  0  0  0
    3.1856   42.5258   51.1363 C   0  0  0  0  0  0  0  0  0  0  0  0
    4.1760   42.0423   50.2838 C   0  0  0  0  0  0  0  0  0  0  0  0
    3.8620   41.0096   49.3832 N   0  0  0  0  0  0  0  0  0  0  0  0
    4.8042   40.5897   48.6100 C   0  0  0  0  0  0  0  0  0  0  0  0
    6.0767   41.0801   48.6143 N   0  0  0  0  0  0  0  0  0  0  0  0
    6.4833   42.0840   49.4544 C   0  0  0  0  0  0  0  0  0  0  0  0
    7.6312   42.5122   49.4505 O   0  0  0  0  0  0  0  0  0  0  0  0
    5.4497   42.6099   50.3626 C   0  0  0  0  0  0  0  0  0  0  0  0
    5.7405   43.6386   51.2678 C   0  0  0  0  0  0  0  0  0  0  0  0
    4.7237   46.9008   55.5157 H   0  0  0  0  0  0  0  0  0  0  0  0
    6.4268   46.3011   55.6519 H   0  0  0  0  0  0  0  0  0  0  0  0
    7.3249   48.8984   53.6359 H   0  0  0  0  0  0  0  0  0  0  0  0
    7.4728   47.9397   55.2088 H   0  0  0  0  0  0  0  0  0  0  0  0
    8.8928   46.6367   54.4527 H   0  0  0  0  0  0  0  0  0  0  0  0
    9.1403   48.6804   52.2404 H   0  0  0  0  0  0  0  0  0  0  0  0
   10.2808   48.3211   53.5058 H   0  0  0  0  0  0  0  0  0  0  0  0
   10.6389   47.2215   51.0647 H   0  0  0  0  0  0  0  0  0  0  0  0
   10.9153   46.1738   52.4330 H   0  0  0  0  0  0  0  0  0  0  0  0
    8.4719   46.4188   50.6248 H   0  0  0  0  0  0  0  0  0  0  0  0
    9.1744   44.9425   51.3226 H   0  0  0  0  0  0  0  0  0  0  0  0
    5.3459   46.0537   52.6072 H   0  0  0  0  0  0  0  0  0  0  0  0
    2.6675   43.9232   52.7119 H   0  0  0  0  0  0  0  0  0  0  0  0
    2.1743   42.0951   51.0941 H   0  0  0  0  0  0  0  0  0  0  0  0
    4.5663   39.7834   47.9005 H   0  0  0  0  0  0  0  0  0  0  0  0
    6.7765   40.7116   47.9856 H   0  0  0  0  0  0  0  0  0  0  0  0
    6.7524   44.0680   51.3084 H   0  0  0  0  0  0  0  0  0  0  0  0
  1  2  2  0
  2  3  1  0
  3  4  1  0
  4  5  1  0
  5  6  1  0
  6  7  1  0
  7  8  1  0
  8  9  1  0
  9 10  1  0
  2 11  1  0
 11 12  1  0
 12 13  2  0
 13 14  1  0
 14 15  2  0
 15 16  1  0
 16 17  2  0
 17 18  1  0
 18 19  1  0
 19 20  2  0
 19 21  1  0
 21 22  2  0
 10  6  1  0
 22 12  1  0
 21 15  1  0
  3 23  1  0
  3 24  1  0
  5 25  1  0
  5 26  1  0
  6 27  1  1
  7 28  1  0
  7 29  1  0
  8 30  1  0
  8 31  1  0
  9 32  1  0
  9 33  1  0
 11 34  1  0
 13 35  1  0
 14 36  1  0
 17 37  1  0
 18 38  1  0
 22 39  1  0
M  END
>  <meeko>  (5) 
{"is_sidechain": false}

>  <CID>  (5) 
Z1192499493

>  <pose_index>  (5) 
5

>  <docking_score>  (5) 
-7.461

>  <rmsd_to_best_selected>  (5) 
1.107423034114718

>  <MWT>  (5) 
303.3179999999997

>  <TPSA>  (5) 
93.31

>  <logP>  (5) 
1.0572

>  <HBD>  (5) 
2

>  <HBA>  (5) 
5

>  <SMILES>  (5) 
[H]c1c(N([H])C(=O)C([H])([H])OC([H])([H])C2([H])OC([H])([H])C([H])([H])C2([H])[H])c([H])c2c(=O)n([H])c([H])nc2c1[H]

$$$$
Z1192499493_pose6
     RDKit          3D

 39 41  0  0  0  0  0  0  0  0999 V2000
    5.2438   43.8973   55.0761 O   0  0  0  0  0  0  0  0  0  0  0  0
    5.4467   44.9263   54.4381 C   0  0  0  0  0  0  0  0  0  0  0  0
    5.9158   46.2082   55.1379 C   0  0  0  0  0  0  0  0  0  0  0  0
    6.0572   47.2825   54.2143 O   0  0  0  0  0  0  0  0  0  0  0  0
    7.3210   47.9506   54.2583 C   0  0  0  0  0  0  0  0  0  0  0  0
    8.1957   47.8277   53.0012 C   0  0  2  0  0  0  0  0  0  0  0  0
    8.1046   46.5125   52.2426 C   0  0  0  0  0  0  0  0  0  0  0  0
    9.4177   46.5018   51.4992 C   0  0  0  0  0  0  0  0  0  0  0  0
   10.3617   47.1240   52.5077 C   0  0  0  0  0  0  0  0  0  0  0  0
    9.5884   48.0430   53.2908 O   0  0  0  0  0  0  0  0  0  0  0  0
    5.2831   45.1087   53.0774 N   0  0  0  0  0  0  0  0  0  0  0  0
    4.8615   44.1781   52.1146 C   0  0  0  0  0  0  0  0  0  0  0  0
    3.5215   43.9315   51.8045 C   0  0  0  0  0  0  0  0  0  0  0  0
    3.1753   42.9855   50.8290 C   0  0  0  0  0  0  0  0  0  0  0  0
    4.1599   42.2735   50.1472 C   0  0  0  0  0  0  0  0  0  0  0  0
    3.7768   41.3328   49.1754 N   0  0  0  0  0  0  0  0  0  0  0  0
    4.7154   40.6942   48.5649 C   0  0  0  0  0  0  0  0  0  0  0  0
    6.0465   40.8722   48.8040 N   0  0  0  0  0  0  0  0  0  0  0  0
    6.5216   41.7623   49.7324 C   0  0  0  0  0  0  0  0  0  0  0  0
    7.7204   41.9096   49.9405 O   0  0  0  0  0  0  0  0  0  0  0  0
    5.4972   42.5271   50.4631 C   0  0  0  0  0  0  0  0  0  0  0  0
    5.8558   43.4686   51.4353 C   0  0  0  0  0  0  0  0  0  0  0  0
    5.1772   46.4890   55.9031 H   0  0  0  0  0  0  0  0  0  0  0  0
    6.8971   46.0135   55.5952 H   0  0  0  0  0  0  0  0  0  0  0  0
    7.1297   49.0199   54.4313 H   0  0  0  0  0  0  0  0  0  0  0  0
    7.8878   47.4571   55.0616 H   0  0  0  0  0  0  0  0  0  0  0  0
    7.7763   48.6141   52.3564 H   0  0  0  0  0  0  0  0  0  0  0  0
    8.0249   45.6571   52.9297 H   0  0  0  0  0  0  0  0  0  0  0  0
    7.2209   46.4301   51.5928 H   0  0  0  0  0  0  0  0  0  0  0  0
    9.7243   45.4761   51.2460 H   0  0  0  0  0  0  0  0  0  0  0  0
    9.3851   47.0349   50.5376 H   0  0  0  0  0  0  0  0  0  0  0  0
   10.7916   46.3448   53.1543 H   0  0  0  0  0  0  0  0  0  0  0  0
   11.1927   47.6389   52.0035 H   0  0  0  0  0  0  0  0  0  0  0  0
    5.5146   46.0510   52.7631 H   0  0  0  0  0  0  0  0  0  0  0  0
    2.7301   44.4851   52.3311 H   0  0  0  0  0  0  0  0  0  0  0  0
    2.1150   42.8037   50.5995 H   0  0  0  0  0  0  0  0  0  0  0  0
    4.4240   39.9579   47.8015 H   0  0  0  0  0  0  0  0  0  0  0  0
    6.7400   40.3429   48.2956 H   0  0  0  0  0  0  0  0  0  0  0  0
    6.9165   43.6492   51.6639 H   0  0  0  0  0  0  0  0  0  0  0  0
  1  2  2  0
  2  3  1  0
  3  4  1  0
  4  5  1  0
  5  6  1  0
  6  7  1  0
  7  8  1  0
  8  9  1  0
  9 10  1  0
  2 11  1  0
 11 12  1  0
 12 13  2  0
 13 14  1  0
 14 15  2  0
 15 16  1  0
 16 17  2  0
 17 18  1  0
 18 19  1  0
 19 20  2  0
 19 21  1  0
 21 22  2  0
 10  6  1  0
 22 12  1  0
 21 15  1  0
  3 23  1  0
  3 24  1  0
  5 25  1  0
  5 26  1  0
  6 27  1  6
  7 28  1  0
  7 29  1  0
  8 30  1  0
  8 31  1  0
  9 32  1  0
  9 33  1  0
 11 34  1  0
 13 35  1  0
 14 36  1  0
 17 37  1  0
 18 38  1  0
 22 39  1  0
M  END
>  <meeko>  (6) 
{"is_sidechain": false}

>  <CID>  (6) 
Z1192499493

>  <pose_index>  (6) 
6

>  <docking_score>  (6) 
-7.458

>  <rmsd_to_best_selected>  (6) 
1.8598929604509309

>  <MWT>  (6) 
303.3179999999997

>  <TPSA>  (6) 
93.31

>  <logP>  (6) 
1.0572

>  <HBD>  (6) 
2

>  <HBA>  (6) 
5

>  <SMILES>  (6) 
[H]c1c(N([H])C(=O)C([H])([H])OC([H])([H])C2([H])OC([H])([H])C([H])([H])C2([H])[H])c([H])c2c(=O)n([H])c([H])nc2c1[H]

$$$$
Z1192499493_pose8
     RDKit          3D

 39 41  0  0  0  0  0  0  0  0999 V2000
    4.6876   44.6452   54.8505 O   0  0  0  0  0  0  0  0  0  0  0  0
    5.8578   44.9306   54.6111 C   0  0  0  0  0  0  0  0  0  0  0  0
    6.5842   46.0181   55.4118 C   0  0  0  0  0  0  0  0  0  0  0  0
    6.3153   47.3154   54.8896 O   0  0  0  0  0  0  0  0  0  0  0  0
    7.4710   48.0469   54.4743 C   0  0  0  0  0  0  0  0  0  0  0  0
    7.7734   48.0402   52.9675 C   0  0  2  0  0  0  0  0  0  0  0  0
    6.6138   47.6809   52.0501 C   0  0  0  0  0  0  0  0  0  0  0  0
    7.3427   47.2110   50.8154 C   0  0  0  0  0  0  0  0  0  0  0  0
    8.5400   46.4924   51.4034 C   0  0  0  0  0  0  0  0  0  0  0  0
    8.8524   47.1474   52.6409 O   0  0  0  0  0  0  0  0  0  0  0  0
    6.6673   44.3760   53.6365 N   0  0  0  0  0  0  0  0  0  0  0  0
    6.3557   43.3690   52.7095 C   0  0  0  0  0  0  0  0  0  0  0  0
    6.3668   42.0040   53.0088 C   0  0  0  0  0  0  0  0  0  0  0  0
    6.0435   41.0545   52.0292 C   0  0  0  0  0  0  0  0  0  0  0  0
    5.7024   41.4514   50.7382 C   0  0  0  0  0  0  0  0  0  0  0  0
    5.3840   40.4712   49.7814 N   0  0  0  0  0  0  0  0  0  0  0  0
    5.0722   40.8760   48.5984 C   0  0  0  0  0  0  0  0  0  0  0  0
    5.0354   42.1874   48.2206 N   0  0  0  0  0  0  0  0  0  0  0  0
    5.3317   43.2150   49.0766 C   0  0  0  0  0  0  0  0  0  0  0  0
    5.2988   44.3885   48.7224 O   0  0  0  0  0  0  0  0  0  0  0  0
    5.6924   42.8173   50.4476 C   0  0  0  0  0  0  0  0  0  0  0  0
    6.0132   43.7758   51.4168 C   0  0  0  0  0  0  0  0  0  0  0  0
    6.2478   45.9769   56.4583 H   0  0  0  0  0  0  0  0  0  0  0  0
    7.6665   45.8345   55.3419 H   0  0  0  0  0  0  0  0  0  0  0  0
    7.3352   49.0934   54.7847 H   0  0  0  0  0  0  0  0  0  0  0  0
    8.3253   47.5411   54.9481 H   0  0  0  0  0  0  0  0  0  0  0  0
    8.0309   49.0934   52.7815 H   0  0  0  0  0  0  0  0  0  0  0  0
    5.9941   46.8803   52.4802 H   0  0  0  0  0  0  0  0  0  0  0  0
    5.9116   48.5081   51.8692 H   0  0  0  0  0  0  0  0  0  0  0  0
    6.7196   46.5268   50.2208 H   0  0  0  0  0  0  0  0  0  0  0  0
    7.6116   48.0244   50.1255 H   0  0  0  0  0  0  0  0  0  0  0  0
    8.2948   45.4357   51.5860 H   0  0  0  0  0  0  0  0  0  0  0  0
    9.3963   46.5244   50.7137 H   0  0  0  0  0  0  0  0  0  0  0  0
    7.6084   44.7659   53.6207 H   0  0  0  0  0  0  0  0  0  0  0  0
    6.6317   41.6711   54.0232 H   0  0  0  0  0  0  0  0  0  0  0  0
    6.0595   39.9843   52.2829 H   0  0  0  0  0  0  0  0  0  0  0  0
    4.8194   40.1160   47.8444 H   0  0  0  0  0  0  0  0  0  0  0  0
    4.7854   42.4470   47.2773 H   0  0  0  0  0  0  0  0  0  0  0  0
    5.9959   44.8456   51.1616 H   0  0  0  0  0  0  0  0  0  0  0  0
  1  2  2  0
  2  3  1  0
  3  4  1  0
  4  5  1  0
  5  6  1  0
  6  7  1  0
  7  8  1  0
  8  9  1  0
  9 10  1  0
  2 11  1  0
 11 12  1  0
 12 13  2  0
 13 14  1  0
 14 15  2  0
 15 16  1  0
 16 17  2  0
 17 18  1  0
 18 19  1  0
 19 20  2  0
 19 21  1  0
 21 22  2  0
 10  6  1  0
 22 12  1  0
 21 15  1  0
  3 23  1  0
  3 24  1  0
  5 25  1  0
  5 26  1  0
  6 27  1  6
  7 28  1  0
  7 29  1  0
  8 30  1  0
  8 31  1  0
  9 32  1  0
  9 33  1  0
 11 34  1  0
 13 35  1  0
 14 36  1  0
 17 37  1  0
 18 38  1  0
 22 39  1  0
M  END
>  <meeko>  (7) 
{"is_sidechain": false}

>  <CID>  (7) 
Z1192499493

>  <pose_index>  (7) 
8

>  <docking_score>  (7) 
-7.402

>  <rmsd_to_best_selected>  (7) 
1.4656220974432592

>  <MWT>  (7) 
303.3179999999997

>  <TPSA>  (7) 
93.31

>  <logP>  (7) 
1.0572

>  <HBD>  (7) 
2

>  <HBA>  (7) 
5

>  <SMILES>  (7) 
[H]c1c(N([H])C(=O)C([H])([H])OC([H])([H])C2([H])OC([H])([H])C([H])([H])C2([H])[H])c([H])c2c(=O)n([H])c([H])nc2c1[H]

$$$$
