Z1381816014_pose1
     RDKit          3D

 46 48  0  0  0  0  0  0  0  0999 V2000
    3.2700   47.1800   51.7300 O   0  0  0  0  0  0  0  0  0  0  0  0
    3.7010   46.4480   52.6170 C   0  0  0  0  0  0  0  0  0  0  0  0
    4.9800   45.9170   52.6040 N   0  0  0  0  0  0  0  0  0  0  0  0
    6.0030   46.3430   51.6590 C   0  0  1  0  0  0  0  0  0  0  0  0
    7.2190   46.9530   52.3910 C   0  0  0  0  0  0  0  0  0  0  0  0
    7.3110   46.7090   53.8930 C   0  0  0  0  0  0  0  0  0  0  0  0
    6.3260   47.4550   54.5970 O   0  0  0  0  0  0  0  0  0  0  0  0
    6.2820   45.2410   50.5990 C   0  0  0  0  0  0  0  0  0  0  0  0
    7.7780   44.9410   50.4290 C   0  0  0  0  0  0  0  0  0  0  0  0
    8.0520   44.0560   49.2090 C   0  0  0  0  0  0  0  0  0  0  0  0
    6.9280   43.0660   48.9030 C   0  0  0  0  0  0  0  0  0  0  0  0
    6.1320   42.7100   50.1490 C   0  0  0  0  0  0  0  0  0  0  0  0
    5.4640   43.9410   50.7670 C   0  0  0  0  0  0  0  0  0  0  0  0
    2.9320   46.0660   53.8120 C   0  0  0  0  0  0  0  0  0  0  0  0
    3.4490   46.0460   55.0510 N   0  0  0  0  0  0  0  0  0  0  0  0
    2.3860   45.6230   55.8450 O   0  0  0  0  0  0  0  0  0  0  0  0
    1.3230   45.4180   55.0120 C   0  0  0  0  0  0  0  0  0  0  0  0
    0.0840   44.9610   55.6120 C   0  0  0  0  0  0  0  0  0  0  0  0
   -0.8420   44.2260   54.8640 C   0  0  0  0  0  0  0  0  0  0  0  0
   -2.0290   43.7910   55.4510 C   0  0  0  0  0  0  0  0  0  0  0  0
   -2.2580   44.1040   56.7800 C   0  0  0  0  0  0  0  0  0  0  0  0
   -1.3930   44.8100   57.5380 N   0  0  0  0  0  0  0  0  0  0  0  0
   -0.2470   45.2210   56.9400 C   0  0  0  0  0  0  0  0  0  0  0  0
    1.6030   45.6710   53.7510 N   0  0  0  0  0  0  0  0  0  0  0  0
    5.2930   45.5170   53.4880 H   0  0  0  0  0  0  0  0  0  0  0  0
    5.6374   47.1824   51.0492 H   0  0  0  0  0  0  0  0  0  0  0  0
    8.1274   46.5377   51.9302 H   0  0  0  0  0  0  0  0  0  0  0  0
    7.1034   48.0416   52.2830 H   0  0  0  0  0  0  0  0  0  0  0  0
    7.1600   45.6378   54.0923 H   0  0  0  0  0  0  0  0  0  0  0  0
    8.3044   47.0317   54.2379 H   0  0  0  0  0  0  0  0  0  0  0  0
    6.0650   46.9240   55.3710 H   0  0  0  0  0  0  0  0  0  0  0  0
    5.9170   45.6916   49.6643 H   0  0  0  0  0  0  0  0  0  0  0  0
    8.3189   45.8910   50.3070 H   0  0  0  0  0  0  0  0  0  0  0  0
    8.1194   44.4002   51.3240 H   0  0  0  0  0  0  0  0  0  0  0  0
    8.1904   44.7061   48.3325 H   0  0  0  0  0  0  0  0  0  0  0  0
    8.9496   43.4626   49.4374 H   0  0  0  0  0  0  0  0  0  0  0  0
    6.2491   43.5160   48.1636 H   0  0  0  0  0  0  0  0  0  0  0  0
    7.3827   42.1433   48.5134 H   0  0  0  0  0  0  0  0  0  0  0  0
    5.3542   41.9808   49.8785 H   0  0  0  0  0  0  0  0  0  0  0  0
    6.8271   42.2893   50.8905 H   0  0  0  0  0  0  0  0  0  0  0  0
    4.4845   44.0825   50.2869 H   0  0  0  0  0  0  0  0  0  0  0  0
    5.3783   43.7522   51.8473 H   0  0  0  0  0  0  0  0  0  0  0  0
   -0.6328   43.9908   53.8100 H   0  0  0  0  0  0  0  0  0  0  0  0
   -2.7653   43.2135   54.8728 H   0  0  0  0  0  0  0  0  0  0  0  0
   -3.1945   43.7590   57.2426 H   0  0  0  0  0  0  0  0  0  0  0  0
    0.4687   45.7981   57.5439 H   0  0  0  0  0  0  0  0  0  0  0  0
  1  2  2  0
  2  3  1  0
  3  4  1  0
  4  5  1  0
  5  6  1  0
  6  7  1  0
  4  8  1  0
  8  9  1  0
  9 10  1  0
 10 11  1  0
 11 12  1  0
 12 13  1  0
  2 14  1  0
 14 15  2  0
 15 16  1  0
 16 17  1  0
 17 18  1  0
 18 19  2  0
 19 20  1  0
 20 21  2  0
 21 22  1  0
 22 23  2  0
 17 24  2  0
 13  8  1  0
 24 14  1  0
 23 18  1  0
  3 25  1  0
  4 26  1  6
  5 27  1  0
  5 28  1  0
  6 29  1  0
  6 30  1  0
  7 31  1  0
  8 32  1  0
  9 33  1  0
  9 34  1  0
 10 35  1  0
 10 36  1  0
 11 37  1  0
 11 38  1  0
 12 39  1  0
 12 40  1  0
 13 41  1  0
 13 42  1  0
 19 43  1  0
 20 44  1  0
 21 45  1  0
 23 46  1  0
M  END
>  <meeko>  (1) 
{"is_sidechain": false}

>  <CID>  (1) 
Z1381816014

>  <pose_index>  (1) 
1

>  <docking_score>  (1) 
-7.918

>  <rmsd_to_best_selected>  (1) 
0.0

>  <MWT>  (1) 
330.3879999999996

>  <TPSA>  (1) 
101.14

>  <logP>  (1) 
2.1926999999999994

>  <HBD>  (1) 
2

>  <HBA>  (1) 
6

>  <SMILES>  (1) 
[H]OC([H])([H])C([H])([H])C([H])(N([H])C(=O)c1noc(-c2c([H])nc([H])c([H])c2[H])n1)C1([H])C([H])([H])C([H])([H])C([H])([H])C([H])([H])C1([H])[H]

$$$$
Z1381816014_pose2
     RDKit          3D

 46 48  0  0  0  0  0  0  0  0999 V2000
    3.3668   47.0717   51.2671 O   0  0  0  0  0  0  0  0  0  0  0  0
    3.4487   46.1116   52.0279 C   0  0  0  0  0  0  0  0  0  0  0  0
    4.6403   45.4578   52.2920 N   0  0  0  0  0  0  0  0  0  0  0  0
    5.9356   45.9724   51.8687 C   0  0  1  0  0  0  0  0  0  0  0  0
    6.8937   46.1291   53.0712 C   0  0  0  0  0  0  0  0  0  0  0  0
    6.2717   46.5589   54.3944 C   0  0  0  0  0  0  0  0  0  0  0  0
    5.6237   45.4684   55.0381 O   0  0  0  0  0  0  0  0  0  0  0  0
    6.4644   45.2050   50.6245 C   0  0  0  0  0  0  0  0  0  0  0  0
    7.9967   45.1447   50.5670 C   0  0  0  0  0  0  0  0  0  0  0  0
    8.5015   44.6257   49.2176 C   0  0  0  0  0  0  0  0  0  0  0  0
    7.5684   43.6074   48.5623 C   0  0  0  0  0  0  0  0  0  0  0  0
    6.7318   42.8618   49.5909 C   0  0  0  0  0  0  0  0  0  0  0  0
    5.8377   43.8124   50.3923 C   0  0  0  0  0  0  0  0  0  0  0  0
    2.3094   45.5540   52.7728 C   0  0  0  0  0  0  0  0  0  0  0  0
    1.4742   44.6306   52.2700 N   0  0  0  0  0  0  0  0  0  0  0  0
    0.5629   44.4149   53.2996 O   0  0  0  0  0  0  0  0  0  0  0  0
    0.9248   45.2340   54.3306 C   0  0  0  0  0  0  0  0  0  0  0  0
    0.1104   45.1941   55.5317 C   0  0  0  0  0  0  0  0  0  0  0  0
   -0.8026   44.1548   55.7395 C   0  0  0  0  0  0  0  0  0  0  0  0
   -1.5797   44.1254   56.8959 C   0  0  0  0  0  0  0  0  0  0  0  0
   -1.4190   45.1436   57.8199 C   0  0  0  0  0  0  0  0  0  0  0  0
   -0.5517   46.1647   57.6607 N   0  0  0  0  0  0  0  0  0  0  0  0
    0.1902   46.1676   56.5251 C   0  0  0  0  0  0  0  0  0  0  0  0
    1.9881   45.9604   54.0611 N   0  0  0  0  0  0  0  0  0  0  0  0
    4.6228   44.8328   53.0974 H   0  0  0  0  0  0  0  0  0  0  0  0
    5.8376   47.0034   51.4978 H   0  0  0  0  0  0  0  0  0  0  0  0
    7.3847   45.1583   53.2341 H   0  0  0  0  0  0  0  0  0  0  0  0
    7.5729   46.9485   52.7930 H   0  0  0  0  0  0  0  0  0  0  0  0
    7.0629   46.9456   55.0536 H   0  0  0  0  0  0  0  0  0  0  0  0
    5.5218   47.3372   54.1895 H   0  0  0  0  0  0  0  0  0  0  0  0
    4.9400   45.8463   55.6189 H   0  0  0  0  0  0  0  0  0  0  0  0
    6.1168   45.8204   49.7816 H   0  0  0  0  0  0  0  0  0  0  0  0
    8.3981   46.1556   50.7310 H   0  0  0  0  0  0  0  0  0  0  0  0
    8.3382   44.4487   51.3473 H   0  0  0  0  0  0  0  0  0  0  0  0
    8.6142   45.4820   48.5364 H   0  0  0  0  0  0  0  0  0  0  0  0
    9.4553   44.1117   49.4075 H   0  0  0  0  0  0  0  0  0  0  0  0
    6.8949   44.1353   47.8711 H   0  0  0  0  0  0  0  0  0  0  0  0
    8.1874   42.8718   48.0279 H   0  0  0  0  0  0  0  0  0  0  0  0
    6.0970   42.1295   49.0705 H   0  0  0  0  0  0  0  0  0  0  0  0
    7.4165   42.3628   50.2924 H   0  0  0  0  0  0  0  0  0  0  0  0
    4.8921   43.9437   49.8457 H   0  0  0  0  0  0  0  0  0  0  0  0
    5.6897   43.3569   51.3826 H   0  0  0  0  0  0  0  0  0  0  0  0
   -0.9073   43.3584   54.9879 H   0  0  0  0  0  0  0  0  0  0  0  0
   -2.3020   43.3142   57.0700 H   0  0  0  0  0  0  0  0  0  0  0  0
   -2.0316   45.1189   58.7332 H   0  0  0  0  0  0  0  0  0  0  0  0
    0.9020   46.9934   56.3788 H   0  0  0  0  0  0  0  0  0  0  0  0
  1  2  2  0
  2  3  1  0
  3  4  1  0
  4  5  1  0
  5  6  1  0
  6  7  1  0
  4  8  1  0
  8  9  1  0
  9 10  1  0
 10 11  1  0
 11 12  1  0
 12 13  1  0
  2 14  1  0
 14 15  2  0
 15 16  1  0
 16 17  1  0
 17 18  1  0
 18 19  2  0
 19 20  1  0
 20 21  2  0
 21 22  1  0
 22 23  2  0
 17 24  2  0
 13  8  1  0
 24 14  1  0
 23 18  1  0
  3 25  1  0
  4 26  1  6
  5 27  1  0
  5 28  1  0
  6 29  1  0
  6 30  1  0
  7 31  1  0
  8 32  1  0
  9 33  1  0
  9 34  1  0
 10 35  1  0
 10 36  1  0
 11 37  1  0
 11 38  1  0
 12 39  1  0
 12 40  1  0
 13 41  1  0
 13 42  1  0
 19 43  1  0
 20 44  1  0
 21 45  1  0
 23 46  1  0
M  END
>  <meeko>  (2) 
{"is_sidechain": false}

>  <CID>  (2) 
Z1381816014

>  <pose_index>  (2) 
2

>  <docking_score>  (2) 
-7.784

>  <rmsd_to_best_selected>  (2) 
1.3858904657881062

>  <MWT>  (2) 
330.3879999999996

>  <TPSA>  (2) 
101.14

>  <logP>  (2) 
2.1926999999999994

>  <HBD>  (2) 
2

>  <HBA>  (2) 
6

>  <SMILES>  (2) 
[H]OC([H])([H])C([H])([H])C([H])(N([H])C(=O)c1noc(-c2c([H])nc([H])c([H])c2[H])n1)C1([H])C([H])([H])C([H])([H])C([H])([H])C([H])([H])C1([H])[H]

$$$$
Z1381816014_pose3
     RDKit          3D

 46 48  0  0  0  0  0  0  0  0999 V2000
    3.4847   47.2036   51.2538 O   0  0  0  0  0  0  0  0  0  0  0  0
    3.4127   46.2337   52.0027 C   0  0  0  0  0  0  0  0  0  0  0  0
    4.5006   45.4350   52.3125 N   0  0  0  0  0  0  0  0  0  0  0  0
    5.8686   45.7908   51.9585 C   0  0  1  0  0  0  0  0  0  0  0  0
    6.7617   45.8919   53.2151 C   0  0  0  0  0  0  0  0  0  0  0  0
    6.1607   45.4023   54.5268 C   0  0  0  0  0  0  0  0  0  0  0  0
    5.1681   46.2994   55.0060 O   0  0  0  0  0  0  0  0  0  0  0  0
    6.3854   44.9217   50.7778 C   0  0  0  0  0  0  0  0  0  0  0  0
    7.2635   45.7101   49.7961 C   0  0  0  0  0  0  0  0  0  0  0  0
    7.5429   44.9211   48.5132 C   0  0  0  0  0  0  0  0  0  0  0  0
    7.6218   43.4092   48.7266 C   0  0  0  0  0  0  0  0  0  0  0  0
    8.0455   43.0588   50.1440 C   0  0  0  0  0  0  0  0  0  0  0  0
    7.0528   43.5876   51.1816 C   0  0  0  0  0  0  0  0  0  0  0  0
    2.1785   45.8139   52.6850 C   0  0  0  0  0  0  0  0  0  0  0  0
    1.0902   45.3645   52.0393 N   0  0  0  0  0  0  0  0  0  0  0  0
    0.1842   45.1021   53.0642 O   0  0  0  0  0  0  0  0  0  0  0  0
    0.8051   45.4237   54.2368 C   0  0  0  0  0  0  0  0  0  0  0  0
    0.0501   45.2416   55.4634 C   0  0  0  0  0  0  0  0  0  0  0  0
   -1.3480   45.2867   55.4529 C   0  0  0  0  0  0  0  0  0  0  0  0
   -2.0634   45.1083   56.6349 C   0  0  0  0  0  0  0  0  0  0  0  0
   -1.3548   44.8886   57.8038 C   0  0  0  0  0  0  0  0  0  0  0  0
   -0.0077   44.8380   57.8600 N   0  0  0  0  0  0  0  0  0  0  0  0
    0.6619   45.0147   56.6933 C   0  0  0  0  0  0  0  0  0  0  0  0
    2.0307   45.8706   54.0636 N   0  0  0  0  0  0  0  0  0  0  0  0
    4.3675   44.8099   53.1066 H   0  0  0  0  0  0  0  0  0  0  0  0
    5.9076   46.8107   51.5483 H   0  0  0  0  0  0  0  0  0  0  0  0
    7.6709   45.3026   53.0253 H   0  0  0  0  0  0  0  0  0  0  0  0
    6.9321   46.9688   53.3610 H   0  0  0  0  0  0  0  0  0  0  0  0
    5.7035   44.4150   54.3651 H   0  0  0  0  0  0  0  0  0  0  0  0
    6.9642   45.3409   55.2756 H   0  0  0  0  0  0  0  0  0  0  0  0
    5.6314   47.0061   55.4902 H   0  0  0  0  0  0  0  0  0  0  0  0
    5.4622   44.6338   50.2535 H   0  0  0  0  0  0  0  0  0  0  0  0
    6.7489   46.6459   49.5323 H   0  0  0  0  0  0  0  0  0  0  0  0
    8.2269   45.9101   50.2879 H   0  0  0  0  0  0  0  0  0  0  0  0
    6.7360   45.1288   47.7951 H   0  0  0  0  0  0  0  0  0  0  0  0
    8.5270   45.2455   48.1441 H   0  0  0  0  0  0  0  0  0  0  0  0
    6.6320   42.9704   48.5324 H   0  0  0  0  0  0  0  0  0  0  0  0
    8.3766   43.0060   48.0354 H   0  0  0  0  0  0  0  0  0  0  0  0
    8.1080   41.9644   50.2365 H   0  0  0  0  0  0  0  0  0  0  0  0
    9.0217   43.5283   50.3348 H   0  0  0  0  0  0  0  0  0  0  0  0
    6.2644   42.8338   51.3240 H   0  0  0  0  0  0  0  0  0  0  0  0
    7.6217   43.7784   52.1035 H   0  0  0  0  0  0  0  0  0  0  0  0
   -1.8839   45.4636   54.5087 H   0  0  0  0  0  0  0  0  0  0  0  0
   -3.1629   45.1411   56.6393 H   0  0  0  0  0  0  0  0  0  0  0  0
   -1.9204   44.7478   58.7367 H   0  0  0  0  0  0  0  0  0  0  0  0
    1.7609   44.9762   56.7209 H   0  0  0  0  0  0  0  0  0  0  0  0
  1  2  2  0
  2  3  1  0
  3  4  1  0
  4  5  1  0
  5  6  1  0
  6  7  1  0
  4  8  1  0
  8  9  1  0
  9 10  1  0
 10 11  1  0
 11 12  1  0
 12 13  1  0
  2 14  1  0
 14 15  2  0
 15 16  1  0
 16 17  1  0
 17 18  1  0
 18 19  2  0
 19 20  1  0
 20 21  2  0
 21 22  1  0
 22 23  2  0
 17 24  2  0
 13  8  1  0
 24 14  1  0
 23 18  1  0
  3 25  1  0
  4 26  1  6
  5 27  1  0
  5 28  1  0
  6 29  1  0
  6 30  1  0
  7 31  1  0
  8 32  1  0
  9 33  1  0
  9 34  1  0
 10 35  1  0
 10 36  1  0
 11 37  1  0
 11 38  1  0
 12 39  1  0
 12 40  1  0
 13 41  1  0
 13 42  1  0
 19 43  1  0
 20 44  1  0
 21 45  1  0
 23 46  1  0
M  END
>  <meeko>  (3) 
{"is_sidechain": false}

>  <CID>  (3) 
Z1381816014

>  <pose_index>  (3) 
3

>  <docking_score>  (3) 
-7.547

>  <rmsd_to_best_selected>  (3) 
1.7530750855623516

>  <MWT>  (3) 
330.3879999999996

>  <TPSA>  (3) 
101.14

>  <logP>  (3) 
2.1926999999999994

>  <HBD>  (3) 
2

>  <HBA>  (3) 
6

>  <SMILES>  (3) 
[H]OC([H])([H])C([H])([H])C([H])(N([H])C(=O)c1noc(-c2c([H])nc([H])c([H])c2[H])n1)C1([H])C([H])([H])C([H])([H])C([H])([H])C([H])([H])C1([H])[H]

$$$$
Z1381816014_pose5
     RDKit          3D

 46 48  0  0  0  0  0  0  0  0999 V2000
    3.0874   47.0311   51.8383 O   0  0  0  0  0  0  0  0  0  0  0  0
    3.4114   45.9642   52.3526 C   0  0  0  0  0  0  0  0  0  0  0  0
    4.6492   45.3755   52.1556 N   0  0  0  0  0  0  0  0  0  0  0  0
    5.7561   46.0617   51.5032 C   0  0  1  0  0  0  0  0  0  0  0  0
    6.6402   46.7988   52.5336 C   0  0  0  0  0  0  0  0  0  0  0  0
    5.9558   47.2807   53.8072 C   0  0  0  0  0  0  0  0  0  0  0  0
    5.8658   46.2394   54.7695 O   0  0  0  0  0  0  0  0  0  0  0  0
    6.4674   45.1307   50.4815 C   0  0  0  0  0  0  0  0  0  0  0  0
    7.9896   45.3275   50.4549 C   0  0  0  0  0  0  0  0  0  0  0  0
    8.6421   44.6057   49.2720 C   0  0  0  0  0  0  0  0  0  0  0  0
    7.9269   43.3159   48.8672 C   0  0  0  0  0  0  0  0  0  0  0  0
    7.1761   42.6960   50.0354 C   0  0  0  0  0  0  0  0  0  0  0  0
    6.0954   43.6351   50.5797 C   0  0  0  0  0  0  0  0  0  0  0  0
    2.5449   45.1940   53.2585 C   0  0  0  0  0  0  0  0  0  0  0  0
    2.5810   43.8547   53.3590 N   0  0  0  0  0  0  0  0  0  0  0  0
    1.6021   43.5697   54.3079 O   0  0  0  0  0  0  0  0  0  0  0  0
    1.0576   44.7630   54.6905 C   0  0  0  0  0  0  0  0  0  0  0  0
   -0.0021   44.7246   55.6804 C   0  0  0  0  0  0  0  0  0  0  0  0
   -0.7084   45.8854   56.0133 C   0  0  0  0  0  0  0  0  0  0  0  0
   -1.7265   45.8372   56.9650 C   0  0  0  0  0  0  0  0  0  0  0  0
   -2.0119   44.6211   57.5598 C   0  0  0  0  0  0  0  0  0  0  0  0
   -1.3563   43.4766   57.2695 N   0  0  0  0  0  0  0  0  0  0  0  0
   -0.3707   43.5543   56.3401 C   0  0  0  0  0  0  0  0  0  0  0  0
    1.5956   45.7934   54.0749 N   0  0  0  0  0  0  0  0  0  0  0  0
    4.8779   44.6215   52.8028 H   0  0  0  0  0  0  0  0  0  0  0  0
    5.3830   46.8808   50.8709 H   0  0  0  0  0  0  0  0  0  0  0  0
    7.4484   46.1135   52.8291 H   0  0  0  0  0  0  0  0  0  0  0  0
    6.9748   47.7138   52.0231 H   0  0  0  0  0  0  0  0  0  0  0  0
    6.5355   48.1130   54.2328 H   0  0  0  0  0  0  0  0  0  0  0  0
    4.9368   47.6072   53.5521 H   0  0  0  0  0  0  0  0  0  0  0  0
    4.9403   46.2076   55.0712 H   0  0  0  0  0  0  0  0  0  0  0  0
    6.0640   45.4629   49.5135 H   0  0  0  0  0  0  0  0  0  0  0  0
    8.2072   46.4031   50.3781 H   0  0  0  0  0  0  0  0  0  0  0  0
    8.4029   44.9026   51.3815 H   0  0  0  0  0  0  0  0  0  0  0  0
    8.6447   45.2868   48.4083 H   0  0  0  0  0  0  0  0  0  0  0  0
    9.6573   44.3241   49.5883 H   0  0  0  0  0  0  0  0  0  0  0  0
    7.2107   43.5430   48.0639 H   0  0  0  0  0  0  0  0  0  0  0  0
    8.6862   42.5958   48.5281 H   0  0  0  0  0  0  0  0  0  0  0  0
    6.7004   41.7632   49.6982 H   0  0  0  0  0  0  0  0  0  0  0  0
    7.8985   42.5022   50.8420 H   0  0  0  0  0  0  0  0  0  0  0  0
    5.1705   43.4688   50.0080 H   0  0  0  0  0  0  0  0  0  0  0  0
    5.9753   43.4027   51.6481 H   0  0  0  0  0  0  0  0  0  0  0  0
   -0.4601   46.8383   55.5231 H   0  0  0  0  0  0  0  0  0  0  0  0
   -2.2885   46.7431   57.2360 H   0  0  0  0  0  0  0  0  0  0  0  0
   -2.8160   44.5844   58.3096 H   0  0  0  0  0  0  0  0  0  0  0  0
    0.1735   42.6314   56.0909 H   0  0  0  0  0  0  0  0  0  0  0  0
  1  2  2  0
  2  3  1  0
  3  4  1  0
  4  5  1  0
  5  6  1  0
  6  7  1  0
  4  8  1  0
  8  9  1  0
  9 10  1  0
 10 11  1  0
 11 12  1  0
 12 13  1  0
  2 14  1  0
 14 15  2  0
 15 16  1  0
 16 17  1  0
 17 18  1  0
 18 19  2  0
 19 20  1  0
 20 21  2  0
 21 22  1  0
 22 23  2  0
 17 24  2  0
 13  8  1  0
 24 14  1  0
 23 18  1  0
  3 25  1  0
  4 26  1  6
  5 27  1  0
  5 28  1  0
  6 29  1  0
  6 30  1  0
  7 31  1  0
  8 32  1  0
  9 33  1  0
  9 34  1  0
 10 35  1  0
 10 36  1  0
 11 37  1  0
 11 38  1  0
 12 39  1  0
 12 40  1  0
 13 41  1  0
 13 42  1  0
 19 43  1  0
 20 44  1  0
 21 45  1  0
 23 46  1  0
M  END
>  <meeko>  (4) 
{"is_sidechain": false}

>  <CID>  (4) 
Z1381816014

>  <pose_index>  (4) 
5

>  <docking_score>  (4) 
-7.454

>  <rmsd_to_best_selected>  (4) 
1.5756516558236087

>  <MWT>  (4) 
330.3879999999996

>  <TPSA>  (4) 
101.14

>  <logP>  (4) 
2.1926999999999994

>  <HBD>  (4) 
2

>  <HBA>  (4) 
6

>  <SMILES>  (4) 
[H]OC([H])([H])C([H])([H])C([H])(N([H])C(=O)c1noc(-c2c([H])nc([H])c([H])c2[H])n1)C1([H])C([H])([H])C([H])([H])C([H])([H])C([H])([H])C1([H])[H]

$$$$
Z1381816014_pose7
     RDKit          3D

 46 48  0  0  0  0  0  0  0  0999 V2000
    2.7851   46.5522   51.2225 O   0  0  0  0  0  0  0  0  0  0  0  0
    3.2222   45.7697   52.0609 C   0  0  0  0  0  0  0  0  0  0  0  0
    4.5587   45.4172   52.1419 N   0  0  0  0  0  0  0  0  0  0  0  0
    5.6033   46.0988   51.3888 C   0  0  1  0  0  0  0  0  0  0  0  0
    6.4201   47.0439   52.2978 C   0  0  0  0  0  0  0  0  0  0  0  0
    6.5149   46.6687   53.7719 C   0  0  0  0  0  0  0  0  0  0  0  0
    5.4601   47.2563   54.5228 O   0  0  0  0  0  0  0  0  0  0  0  0
    6.3925   45.1011   50.4964 C   0  0  0  0  0  0  0  0  0  0  0  0
    7.9017   45.3822   50.4775 C   0  0  0  0  0  0  0  0  0  0  0  0
    8.6243   44.5694   49.3987 C   0  0  0  0  0  0  0  0  0  0  0  0
    7.9943   43.2021   49.1336 C   0  0  0  0  0  0  0  0  0  0  0  0
    7.2483   42.6763   50.3501 C   0  0  0  0  0  0  0  0  0  0  0  0
    6.1038   43.6061   50.7608 C   0  0  0  0  0  0  0  0  0  0  0  0
    2.3958   45.1321   53.0974 C   0  0  0  0  0  0  0  0  0  0  0  0
    2.4242   43.8154   53.3631 N   0  0  0  0  0  0  0  0  0  0  0  0
    1.4918   43.6658   54.3868 O   0  0  0  0  0  0  0  0  0  0  0  0
    0.9782   44.9058   54.6430 C   0  0  0  0  0  0  0  0  0  0  0  0
   -0.0314   45.0082   55.6795 C   0  0  0  0  0  0  0  0  0  0  0  0
   -0.7598   43.8818   56.0794 C   0  0  0  0  0  0  0  0  0  0  0  0
   -1.7260   43.9912   57.0773 C   0  0  0  0  0  0  0  0  0  0  0  0
   -1.9394   45.2321   57.6516 C   0  0  0  0  0  0  0  0  0  0  0  0
   -1.2623   46.3437   57.2964 N   0  0  0  0  0  0  0  0  0  0  0  0
   -0.3275   46.2075   56.3229 C   0  0  0  0  0  0  0  0  0  0  0  0
    1.4940   45.8430   53.8774 N   0  0  0  0  0  0  0  0  0  0  0  0
    4.8318   44.9454   53.0036 H   0  0  0  0  0  0  0  0  0  0  0  0
    5.1610   46.7879   50.6543 H   0  0  0  0  0  0  0  0  0  0  0  0
    7.4443   47.0862   51.8988 H   0  0  0  0  0  0  0  0  0  0  0  0
    5.8776   48.0007   52.2790 H   0  0  0  0  0  0  0  0  0  0  0  0
    6.4567   45.5745   53.8678 H   0  0  0  0  0  0  0  0  0  0  0  0
    7.4716   47.0431   54.1649 H   0  0  0  0  0  0  0  0  0  0  0  0
    5.0382   47.9203   53.9495 H   0  0  0  0  0  0  0  0  0  0  0  0
    5.9964   45.2967   49.4890 H   0  0  0  0  0  0  0  0  0  0  0  0
    8.0610   46.4528   50.2816 H   0  0  0  0  0  0  0  0  0  0  0  0
    8.3135   45.0904   51.4549 H   0  0  0  0  0  0  0  0  0  0  0  0
    8.6100   45.1458   48.4619 H   0  0  0  0  0  0  0  0  0  0  0  0
    9.6457   44.3871   49.7641 H   0  0  0  0  0  0  0  0  0  0  0  0
    7.2882   43.2924   48.2949 H   0  0  0  0  0  0  0  0  0  0  0  0
    8.8024   42.4943   48.8968 H   0  0  0  0  0  0  0  0  0  0  0  0
    6.8342   41.6852   50.1130 H   0  0  0  0  0  0  0  0  0  0  0  0
    7.9587   42.6180   51.1879 H   0  0  0  0  0  0  0  0  0  0  0  0
    5.2046   43.3207   50.1951 H   0  0  0  0  0  0  0  0  0  0  0  0
    5.9705   43.4916   51.8467 H   0  0  0  0  0  0  0  0  0  0  0  0
   -0.5691   42.9080   55.6046 H   0  0  0  0  0  0  0  0  0  0  0  0
   -2.3045   43.1132   57.4005 H   0  0  0  0  0  0  0  0  0  0  0  0
   -2.7020   45.3166   58.4398 H   0  0  0  0  0  0  0  0  0  0  0  0
    0.2341   47.1040   56.0215 H   0  0  0  0  0  0  0  0  0  0  0  0
  1  2  2  0
  2  3  1  0
  3  4  1  0
  4  5  1  0
  5  6  1  0
  6  7  1  0
  4  8  1  0
  8  9  1  0
  9 10  1  0
 10 11  1  0
 11 12  1  0
 12 13  1  0
  2 14  1  0
 14 15  2  0
 15 16  1  0
 16 17  1  0
 17 18  1  0
 18 19  2  0
 19 20  1  0
 20 21  2  0
 21 22  1  0
 22 23  2  0
 17 24  2  0
 13  8  1  0
 24 14  1  0
 23 18  1  0
  3 25  1  0
  4 26  1  6
  5 27  1  0
  5 28  1  0
  6 29  1  0
  6 30  1  0
  7 31  1  0
  8 32  1  0
  9 33  1  0
  9 34  1  0
 10 35  1  0
 10 36  1  0
 11 37  1  0
 11 38  1  0
 12 39  1  0
 12 40  1  0
 13 41  1  0
 13 42  1  0
 19 43  1  0
 20 44  1  0
 21 45  1  0
 23 46  1  0
M  END
>  <meeko>  (5) 
{"is_sidechain": false}

>  <CID>  (5) 
Z1381816014

>  <pose_index>  (5) 
7

>  <docking_score>  (5) 
-7.375

>  <rmsd_to_best_selected>  (5) 
1.1237488539453158

>  <MWT>  (5) 
330.3879999999996

>  <TPSA>  (5) 
101.14

>  <logP>  (5) 
2.1926999999999994

>  <HBD>  (5) 
2

>  <HBA>  (5) 
6

>  <SMILES>  (5) 
[H]OC([H])([H])C([H])([H])C([H])(N([H])C(=O)c1noc(-c2c([H])nc([H])c([H])c2[H])n1)C1([H])C([H])([H])C([H])([H])C([H])([H])C([H])([H])C1([H])[H]

$$$$
Z1381816014_pose8
     RDKit          3D

 46 48  0  0  0  0  0  0  0  0999 V2000
    3.0314   46.1200   50.6300 O   0  0  0  0  0  0  0  0  0  0  0  0
    3.2156   45.5596   51.7072 C   0  0  0  0  0  0  0  0  0  0  0  0
    4.4748   45.3541   52.2464 N   0  0  0  0  0  0  0  0  0  0  0  0
    5.6779   45.9661   51.6988 C   0  0  1  0  0  0  0  0  0  0  0  0
    6.5254   46.6228   52.8129 C   0  0  0  0  0  0  0  0  0  0  0  0
    5.7924   47.5439   53.7809 C   0  0  0  0  0  0  0  0  0  0  0  0
    4.8475   48.3610   53.1012 O   0  0  0  0  0  0  0  0  0  0  0  0
    6.4031   45.0003   50.7215 C   0  0  0  0  0  0  0  0  0  0  0  0
    7.8997   45.3104   50.5751 C   0  0  0  0  0  0  0  0  0  0  0  0
    8.5378   44.5323   49.4209 C   0  0  0  0  0  0  0  0  0  0  0  0
    7.9105   43.1583   49.1843 C   0  0  0  0  0  0  0  0  0  0  0  0
    7.2848   42.5965   50.4512 C   0  0  0  0  0  0  0  0  0  0  0  0
    6.1643   43.4956   50.9793 C   0  0  0  0  0  0  0  0  0  0  0  0
    2.1326   45.0667   52.5721 C   0  0  0  0  0  0  0  0  0  0  0  0
    1.2130   44.1737   52.1724 N   0  0  0  0  0  0  0  0  0  0  0  0
    0.3989   44.0145   53.2908 O   0  0  0  0  0  0  0  0  0  0  0  0
    0.8964   44.8332   54.2648 C   0  0  0  0  0  0  0  0  0  0  0  0
    0.2040   44.8489   55.5403 C   0  0  0  0  0  0  0  0  0  0  0  0
   -0.9549   44.0896   55.7316 C   0  0  0  0  0  0  0  0  0  0  0  0
   -1.6114   44.1107   56.9608 C   0  0  0  0  0  0  0  0  0  0  0  0
   -1.0853   44.8970   57.9718 C   0  0  0  0  0  0  0  0  0  0  0  0
    0.0289   45.6453   57.8319 N   0  0  0  0  0  0  0  0  0  0  0  0
    0.6461   45.6043   56.6240 C   0  0  0  0  0  0  0  0  0  0  0  0
    1.9579   45.5067   53.8776 N   0  0  0  0  0  0  0  0  0  0  0  0
    4.4869   45.0886   53.2300 H   0  0  0  0  0  0  0  0  0  0  0  0
    5.4172   46.8180   51.0535 H   0  0  0  0  0  0  0  0  0  0  0  0
    6.9823   45.8150   53.4034 H   0  0  0  0  0  0  0  0  0  0  0  0
    7.2418   47.2703   52.2859 H   0  0  0  0  0  0  0  0  0  0  0  0
    5.2653   46.9322   54.5280 H   0  0  0  0  0  0  0  0  0  0  0  0
    6.5321   48.1980   54.2655 H   0  0  0  0  0  0  0  0  0  0  0  0
    5.1074   49.2863   53.2573 H   0  0  0  0  0  0  0  0  0  0  0  0
    5.9164   45.2070   49.7570 H   0  0  0  0  0  0  0  0  0  0  0  0
    8.0223   46.3873   50.3877 H   0  0  0  0  0  0  0  0  0  0  0  0
    8.4015   45.0082   51.5062 H   0  0  0  0  0  0  0  0  0  0  0  0
    8.4308   45.1259   48.5010 H   0  0  0  0  0  0  0  0  0  0  0  0
    9.5905   44.3626   49.6912 H   0  0  0  0  0  0  0  0  0  0  0  0
    7.1313   43.2509   48.4133 H   0  0  0  0  0  0  0  0  0  0  0  0
    8.7062   42.4705   48.8623 H   0  0  0  0  0  0  0  0  0  0  0  0
    6.8696   41.6017   50.2322 H   0  0  0  0  0  0  0  0  0  0  0  0
    8.0675   42.5377   51.2218 H   0  0  0  0  0  0  0  0  0  0  0  0
    5.2242   43.2038   50.4883 H   0  0  0  0  0  0  0  0  0  0  0  0
    6.1279   43.3576   52.0700 H   0  0  0  0  0  0  0  0  0  0  0  0
   -1.3493   43.4741   54.9096 H   0  0  0  0  0  0  0  0  0  0  0  0
   -2.5237   43.5181   57.1236 H   0  0  0  0  0  0  0  0  0  0  0  0
   -1.6038   44.9126   58.9418 H   0  0  0  0  0  0  0  0  0  0  0  0
    1.5561   46.2080   56.4918 H   0  0  0  0  0  0  0  0  0  0  0  0
  1  2  2  0
  2  3  1  0
  3  4  1  0
  4  5  1  0
  5  6  1  0
  6  7  1  0
  4  8  1  0
  8  9  1  0
  9 10  1  0
 10 11  1  0
 11 12  1  0
 12 13  1  0
  2 14  1  0
 14 15  2  0
 15 16  1  0
 16 17  1  0
 17 18  1  0
 18 19  2  0
 19 20  1  0
 20 21  2  0
 21 22  1  0
 22 23  2  0
 17 24  2  0
 13  8  1  0
 24 14  1  0
 23 18  1  0
  3 25  1  0
  4 26  1  6
  5 27  1  0
  5 28  1  0
  6 29  1  0
  6 30  1  0
  7 31  1  0
  8 32  1  0
  9 33  1  0
  9 34  1  0
 10 35  1  0
 10 36  1  0
 11 37  1  0
 11 38  1  0
 12 39  1  0
 12 40  1  0
 13 41  1  0
 13 42  1  0
 19 43  1  0
 20 44  1  0
 21 45  1  0
 23 46  1  0
M  END
>  <meeko>  (6) 
{"is_sidechain": false}

>  <CID>  (6) 
Z1381816014

>  <pose_index>  (6) 
8

>  <docking_score>  (6) 
-7.356

>  <rmsd_to_best_selected>  (6) 
1.3636193007600734

>  <MWT>  (6) 
330.3879999999996

>  <TPSA>  (6) 
101.14

>  <logP>  (6) 
2.1926999999999994

>  <HBD>  (6) 
2

>  <HBA>  (6) 
6

>  <SMILES>  (6) 
[H]OC([H])([H])C([H])([H])C([H])(N([H])C(=O)c1noc(-c2c([H])nc([H])c([H])c2[H])n1)C1([H])C([H])([H])C([H])([H])C([H])([H])C([H])([H])C1([H])[H]

$$$$
Z1381816014_pose10
     RDKit          3D

 46 48  0  0  0  0  0  0  0  0999 V2000
    2.9909   45.3735   51.4435 O   0  0  0  0  0  0  0  0  0  0  0  0
    3.4347   45.1027   52.5553 C   0  0  0  0  0  0  0  0  0  0  0  0
    4.7755   45.2184   52.8823 N   0  0  0  0  0  0  0  0  0  0  0  0
    5.7474   45.8714   52.0152 C   0  0  1  0  0  0  0  0  0  0  0  0
    6.3994   47.0812   52.7200 C   0  0  0  0  0  0  0  0  0  0  0  0
    6.1073   48.4575   52.1337 C   0  0  0  0  0  0  0  0  0  0  0  0
    7.3037   49.1085   51.7242 O   0  0  0  0  0  0  0  0  0  0  0  0
    6.6933   44.8315   51.3513 C   0  0  0  0  0  0  0  0  0  0  0  0
    5.9845   43.9634   50.3021 C   0  0  0  0  0  0  0  0  0  0  0  0
    6.8489   42.7818   49.8542 C   0  0  0  0  0  0  0  0  0  0  0  0
    8.3490   43.0787   49.8632 C   0  0  0  0  0  0  0  0  0  0  0  0
    8.6334   44.5609   49.6804 C   0  0  0  0  0  0  0  0  0  0  0  0
    8.0217   45.4009   50.8045 C   0  0  0  0  0  0  0  0  0  0  0  0
    2.6050   44.6534   53.6831 C   0  0  0  0  0  0  0  0  0  0  0  0
    2.9874   43.7062   54.5555 N   0  0  0  0  0  0  0  0  0  0  0  0
    1.9055   43.6015   55.4248 O   0  0  0  0  0  0  0  0  0  0  0  0
    0.9608   44.4906   54.9951 C   0  0  0  0  0  0  0  0  0  0  0  0
   -0.2780   44.5621   55.7467 C   0  0  0  0  0  0  0  0  0  0  0  0
   -0.5616   43.6235   56.7448 C   0  0  0  0  0  0  0  0  0  0  0  0
   -1.7548   43.7025   57.4610 C   0  0  0  0  0  0  0  0  0  0  0  0
   -2.6360   44.7249   57.1573 C   0  0  0  0  0  0  0  0  0  0  0  0
   -2.4044   45.6505   56.2028 N   0  0  0  0  0  0  0  0  0  0  0  0
   -1.2354   45.5487   55.5218 C   0  0  0  0  0  0  0  0  0  0  0  0
    1.3353   45.1602   53.9271 N   0  0  0  0  0  0  0  0  0  0  0  0
    4.9835   45.1826   53.8793 H   0  0  0  0  0  0  0  0  0  0  0  0
    5.2449   46.3327   51.1522 H   0  0  0  0  0  0  0  0  0  0  0  0
    6.0537   47.0841   53.7642 H   0  0  0  0  0  0  0  0  0  0  0  0
    7.4828   46.9385   52.5934 H   0  0  0  0  0  0  0  0  0  0  0  0
    5.4453   48.3430   51.2627 H   0  0  0  0  0  0  0  0  0  0  0  0
    5.6261   49.0708   52.9098 H   0  0  0  0  0  0  0  0  0  0  0  0
    7.5052   48.7946   50.8247 H   0  0  0  0  0  0  0  0  0  0  0  0
    6.9830   44.1823   52.1907 H   0  0  0  0  0  0  0  0  0  0  0  0
    5.0504   43.5757   50.7348 H   0  0  0  0  0  0  0  0  0  0  0  0
    5.7855   44.5911   49.4211 H   0  0  0  0  0  0  0  0  0  0  0  0
    6.6584   41.9359   50.5311 H   0  0  0  0  0  0  0  0  0  0  0  0
    6.5721   42.5575   48.8135 H   0  0  0  0  0  0  0  0  0  0  0  0
    8.7707   42.7514   50.8250 H   0  0  0  0  0  0  0  0  0  0  0  0
    8.8093   42.5367   49.0240 H   0  0  0  0  0  0  0  0  0  0  0  0
    9.7224   44.7160   49.6724 H   0  0  0  0  0  0  0  0  0  0  0  0
    8.1811   44.8808   48.7301 H   0  0  0  0  0  0  0  0  0  0  0  0
    8.7444   45.4530   51.6322 H   0  0  0  0  0  0  0  0  0  0  0  0
    7.7975   46.3911   50.3811 H   0  0  0  0  0  0  0  0  0  0  0  0
    0.1586   42.8217   56.9648 H   0  0  0  0  0  0  0  0  0  0  0  0
   -1.9898   42.9704   58.2477 H   0  0  0  0  0  0  0  0  0  0  0  0
   -3.5765   44.7867   57.7245 H   0  0  0  0  0  0  0  0  0  0  0  0
   -1.0299   46.2948   54.7401 H   0  0  0  0  0  0  0  0  0  0  0  0
  1  2  2  0
  2  3  1  0
  3  4  1  0
  4  5  1  0
  5  6  1  0
  6  7  1  0
  4  8  1  0
  8  9  1  0
  9 10  1  0
 10 11  1  0
 11 12  1  0
 12 13  1  0
  2 14  1  0
 14 15  2  0
 15 16  1  0
 16 17  1  0
 17 18  1  0
 18 19  2  0
 19 20  1  0
 20 21  2  0
 21 22  1  0
 22 23  2  0
 17 24  2  0
 13  8  1  0
 24 14  1  0
 23 18  1  0
  3 25  1  0
  4 26  1  6
  5 27  1  0
  5 28  1  0
  6 29  1  0
  6 30  1  0
  7 31  1  0
  8 32  1  0
  9 33  1  0
  9 34  1  0
 10 35  1  0
 10 36  1  0
 11 37  1  0
 11 38  1  0
 12 39  1  0
 12 40  1  0
 13 41  1  0
 13 42  1  0
 19 43  1  0
 20 44  1  0
 21 45  1  0
 23 46  1  0
M  END
>  <meeko>  (7) 
{"is_sidechain": false}

>  <CID>  (7) 
Z1381816014

>  <pose_index>  (7) 
10

>  <docking_score>  (7) 
-7.139

>  <rmsd_to_best_selected>  (7) 
1.7921519903968741

>  <MWT>  (7) 
330.3879999999996

>  <TPSA>  (7) 
101.14

>  <logP>  (7) 
2.1926999999999994

>  <HBD>  (7) 
2

>  <HBA>  (7) 
6

>  <SMILES>  (7) 
[H]OC([H])([H])C([H])([H])C([H])(N([H])C(=O)c1noc(-c2c([H])nc([H])c([H])c2[H])n1)C1([H])C([H])([H])C([H])([H])C([H])([H])C([H])([H])C1([H])[H]

$$$$
