Z1463055422_pose2
     RDKit          3D

 45 47  0  0  0  0  0  0  0  0999 V2000
    3.1231   43.3705   52.1700 N   0  0  0  0  0  0  0  0  0  0  0  0
    3.4053   43.6880   53.4671 C   0  0  0  0  0  0  0  0  0  0  0  0
    3.3627   42.7984   54.3171 O   0  0  0  0  0  0  0  0  0  0  0  0
    3.6647   45.1967   53.8017 C   0  0  0  0  0  0  0  0  0  0  0  0
    5.1411   45.3641   53.7845 N   0  0  0  0  0  0  0  0  0  0  0  0
    5.7873   46.5423   53.4720 C   0  0  0  0  0  0  0  0  0  0  0  0
    5.2432   47.6418   53.4791 O   0  0  0  0  0  0  0  0  0  0  0  0
    7.2276   46.4408   53.0770 C   0  0  0  0  0  0  0  0  0  0  0  0
    8.0660   47.5097   53.4369 C   0  0  0  0  0  0  0  0  0  0  0  0
    9.4198   47.5073   53.0883 C   0  0  0  0  0  0  0  0  0  0  0  0
    9.9509   46.4406   52.3674 C   0  0  0  0  0  0  0  0  0  0  0  0
    9.1338   45.3693   52.0097 C   0  0  0  0  0  0  0  0  0  0  0  0
    7.7848   45.3552   52.3840 C   0  0  0  0  0  0  0  0  0  0  0  0
    7.0114   44.2822   52.0142 O   0  0  0  0  0  0  0  0  0  0  0  0
    6.5905   44.4122   50.6488 C   0  0  0  0  0  0  0  0  0  0  0  0
    7.2750   43.3439   49.8506 C   0  0  0  0  0  0  0  0  0  0  0  0
    8.3378   43.6989   48.8434 C   0  0  0  0  0  0  0  0  0  0  0  0
    7.0003   43.1915   48.3776 C   0  0  0  0  0  0  0  0  0  0  0  0
    3.1998   45.4562   55.2549 C   0  0  0  0  0  0  0  0  0  0  0  0
    1.8127   46.0706   55.3571 C   0  0  0  0  0  0  0  0  0  0  0  0
    1.0160   45.6656   54.2529 O   0  0  0  0  0  0  0  0  0  0  0  0
    1.4539   46.3045   53.0537 C   0  0  0  0  0  0  0  0  0  0  0  0
    2.9522   46.1392   52.8152 C   0  0  0  0  0  0  0  0  0  0  0  0
    2.8133   44.0874   51.5196 H   0  0  0  0  0  0  0  0  0  0  0  0
    2.8323   42.4184   51.9920 H   0  0  0  0  0  0  0  0  0  0  0  0
    5.6603   44.5355   53.5013 H   0  0  0  0  0  0  0  0  0  0  0  0
    7.6518   48.3590   54.0000 H   0  0  0  0  0  0  0  0  0  0  0  0
   10.0653   48.3477   53.3832 H   0  0  0  0  0  0  0  0  0  0  0  0
   11.0129   46.4434   52.0808 H   0  0  0  0  0  0  0  0  0  0  0  0
    9.5505   44.5317   51.4311 H   0  0  0  0  0  0  0  0  0  0  0  0
    5.4996   44.2882   50.5808 H   0  0  0  0  0  0  0  0  0  0  0  0
    6.8530   45.4074   50.2606 H   0  0  0  0  0  0  0  0  0  0  0  0
    7.2228   42.6788   50.7252 H   0  0  0  0  0  0  0  0  0  0  0  0
    8.6132   44.7516   48.6824 H   0  0  0  0  0  0  0  0  0  0  0  0
    9.3835   43.4000   48.6782 H   0  0  0  0  0  0  0  0  0  0  0  0
    6.2980   43.8734   47.8758 H   0  0  0  0  0  0  0  0  0  0  0  0
    6.6635   42.3682   47.7306 H   0  0  0  0  0  0  0  0  0  0  0  0
    3.1944   44.4970   55.7934 H   0  0  0  0  0  0  0  0  0  0  0  0
    3.9032   46.1809   55.6907 H   0  0  0  0  0  0  0  0  0  0  0  0
    1.3357   45.7384   56.2910 H   0  0  0  0  0  0  0  0  0  0  0  0
    1.9036   47.1668   55.3522 H   0  0  0  0  0  0  0  0  0  0  0  0
    0.9111   45.8670   52.2028 H   0  0  0  0  0  0  0  0  0  0  0  0
    1.2489   47.3805   53.1550 H   0  0  0  0  0  0  0  0  0  0  0  0
    3.0948   45.7421   51.7993 H   0  0  0  0  0  0  0  0  0  0  0  0
    3.3995   47.1336   52.9603 H   0  0  0  0  0  0  0  0  0  0  0  0
  1  2  1  0
  2  3  2  0
  2  4  1  0
  4  5  1  0
  5  6  1  0
  6  7  2  0
  6  8  1  0
  8  9  2  0
  9 10  1  0
 10 11  2  0
 11 12  1  0
 12 13  2  0
 13 14  1  0
 14 15  1  0
 15 16  1  0
 16 17  1  0
 17 18  1  0
  4 19  1  0
 19 20  1  0
 20 21  1  0
 21 22  1  0
 22 23  1  0
 23  4  1  0
 13  8  1  0
 18 16  1  0
  1 24  1  0
  1 25  1  0
  5 26  1  0
  9 27  1  0
 10 28  1  0
 11 29  1  0
 12 30  1  0
 15 31  1  0
 15 32  1  0
 16 33  1  0
 17 34  1  0
 17 35  1  0
 18 36  1  0
 18 37  1  0
 19 38  1  0
 19 39  1  0
 20 40  1  0
 20 41  1  0
 22 42  1  0
 22 43  1  0
 23 44  1  0
 23 45  1  0
M  END
>  <meeko>  (1) 
{"is_sidechain": false}

>  <CID>  (1) 
Z1463055422

>  <pose_index>  (1) 
2

>  <docking_score>  (1) 
-8.417

>  <rmsd_to_best_selected>  (1) 
0.0

>  <MWT>  (1) 
318.37299999999965

>  <TPSA>  (1) 
90.65

>  <logP>  (1) 
1.2396999999999994

>  <HBD>  (1) 
2

>  <HBA>  (1) 
4

>  <SMILES>  (1) 
[H]c1c([H])c([H])c(C(=O)N([H])C2(C(=O)N([H])[H])C([H])([H])C([H])([H])OC([H])([H])C2([H])[H])c(OC([H])([H])C2([H])C([H])([H])C2([H])[H])c1[H]

$$$$
Z1463055422_pose4
     RDKit          3D

 45 47  0  0  0  0  0  0  0  0999 V2000
    2.6155   44.6227   51.8382 N   0  0  0  0  0  0  0  0  0  0  0  0
    3.1965   44.3252   53.0374 C   0  0  0  0  0  0  0  0  0  0  0  0
    3.4125   43.1440   53.3115 O   0  0  0  0  0  0  0  0  0  0  0  0
    3.4540   45.5090   54.0293 C   0  0  0  0  0  0  0  0  0  0  0  0
    4.8995   45.8304   53.9046 N   0  0  0  0  0  0  0  0  0  0  0  0
    5.5258   46.1494   52.7161 C   0  0  0  0  0  0  0  0  0  0  0  0
    4.9310   46.5054   51.7047 O   0  0  0  0  0  0  0  0  0  0  0  0
    7.0169   46.0175   52.6805 C   0  0  0  0  0  0  0  0  0  0  0  0
    7.7603   46.9776   53.3864 C   0  0  0  0  0  0  0  0  0  0  0  0
    9.1576   46.9429   53.3888 C   0  0  0  0  0  0  0  0  0  0  0  0
    9.8292   45.9527   52.6766 C   0  0  0  0  0  0  0  0  0  0  0  0
    9.1058   44.9884   51.9757 C   0  0  0  0  0  0  0  0  0  0  0  0
    7.7058   45.0027   51.9985 C   0  0  0  0  0  0  0  0  0  0  0  0
    7.0277   44.0361   51.2989 O   0  0  0  0  0  0  0  0  0  0  0  0
    6.9437   44.3854   49.9087 C   0  0  0  0  0  0  0  0  0  0  0  0
    7.7954   43.4232   49.1379 C   0  0  0  0  0  0  0  0  0  0  0  0
    9.0314   43.8976   48.4180 C   0  0  0  0  0  0  0  0  0  0  0  0
    7.8245   43.4597   47.6324 C   0  0  0  0  0  0  0  0  0  0  0  0
    3.2322   44.9891   55.4706 C   0  0  0  0  0  0  0  0  0  0  0  0
    1.8619   45.3176   56.0388 C   0  0  0  0  0  0  0  0  0  0  0  0
    0.9043   45.4007   54.9929 O   0  0  0  0  0  0  0  0  0  0  0  0
    1.1099   46.5803   54.2149 C   0  0  0  0  0  0  0  0  0  0  0  0
    2.5511   46.7200   53.7328 C   0  0  0  0  0  0  0  0  0  0  0  0
    2.1164   45.5001   51.7116 H   0  0  0  0  0  0  0  0  0  0  0  0
    2.3378   43.8377   51.2640 H   0  0  0  0  0  0  0  0  0  0  0  0
    5.5035   45.3338   54.5544 H   0  0  0  0  0  0  0  0  0  0  0  0
    7.2360   47.7672   53.9448 H   0  0  0  0  0  0  0  0  0  0  0  0
    9.7261   47.6971   53.9527 H   0  0  0  0  0  0  0  0  0  0  0  0
   10.9289   45.9311   52.6668 H   0  0  0  0  0  0  0  0  0  0  0  0
    9.6368   44.2138   51.4029 H   0  0  0  0  0  0  0  0  0  0  0  0
    5.8999   44.3156   49.5685 H   0  0  0  0  0  0  0  0  0  0  0  0
    7.2935   45.4165   49.7516 H   0  0  0  0  0  0  0  0  0  0  0  0
    7.5826   42.6530   49.8939 H   0  0  0  0  0  0  0  0  0  0  0  0
    9.3116   44.9608   48.4485 H   0  0  0  0  0  0  0  0  0  0  0  0
   10.0949   43.6168   48.4308 H   0  0  0  0  0  0  0  0  0  0  0  0
    7.2230   44.2030   47.0887 H   0  0  0  0  0  0  0  0  0  0  0  0
    7.6411   42.7264   46.8332 H   0  0  0  0  0  0  0  0  0  0  0  0
    3.3527   43.8957   55.4670 H   0  0  0  0  0  0  0  0  0  0  0  0
    3.9723   45.4930   56.1096 H   0  0  0  0  0  0  0  0  0  0  0  0
    1.5622   44.5284   56.7440 H   0  0  0  0  0  0  0  0  0  0  0  0
    1.9113   46.2861   56.5579 H   0  0  0  0  0  0  0  0  0  0  0  0
    0.4467   46.5444   53.3380 H   0  0  0  0  0  0  0  0  0  0  0  0
    0.8870   47.4459   54.8561 H   0  0  0  0  0  0  0  0  0  0  0  0
    2.5337   46.8748   52.6439 H   0  0  0  0  0  0  0  0  0  0  0  0
    2.9807   47.5680   54.2864 H   0  0  0  0  0  0  0  0  0  0  0  0
  1  2  1  0
  2  3  2  0
  2  4  1  0
  4  5  1  0
  5  6  1  0
  6  7  2  0
  6  8  1  0
  8  9  2  0
  9 10  1  0
 10 11  2  0
 11 12  1  0
 12 13  2  0
 13 14  1  0
 14 15  1  0
 15 16  1  0
 16 17  1  0
 17 18  1  0
  4 19  1  0
 19 20  1  0
 20 21  1  0
 21 22  1  0
 22 23  1  0
 23  4  1  0
 13  8  1  0
 18 16  1  0
  1 24  1  0
  1 25  1  0
  5 26  1  0
  9 27  1  0
 10 28  1  0
 11 29  1  0
 12 30  1  0
 15 31  1  0
 15 32  1  0
 16 33  1  0
 17 34  1  0
 17 35  1  0
 18 36  1  0
 18 37  1  0
 19 38  1  0
 19 39  1  0
 20 40  1  0
 20 41  1  0
 22 42  1  0
 22 43  1  0
 23 44  1  0
 23 45  1  0
M  END
>  <meeko>  (2) 
{"is_sidechain": false}

>  <CID>  (2) 
Z1463055422

>  <pose_index>  (2) 
4

>  <docking_score>  (2) 
-8.097

>  <rmsd_to_best_selected>  (2) 
0.9452404092386144

>  <MWT>  (2) 
318.37299999999965

>  <TPSA>  (2) 
90.65

>  <logP>  (2) 
1.2396999999999994

>  <HBD>  (2) 
2

>  <HBA>  (2) 
4

>  <SMILES>  (2) 
[H]c1c([H])c([H])c(C(=O)N([H])C2(C(=O)N([H])[H])C([H])([H])C([H])([H])OC([H])([H])C2([H])[H])c(OC([H])([H])C2([H])C([H])([H])C2([H])[H])c1[H]

$$$$
Z1463055422_pose5
     RDKit          3D

 45 47  0  0  0  0  0  0  0  0999 V2000
    2.0326   43.6685   53.0244 N   0  0  0  0  0  0  0  0  0  0  0  0
    2.4435   44.8812   52.5505 C   0  0  0  0  0  0  0  0  0  0  0  0
    2.2831   45.1337   51.3552 O   0  0  0  0  0  0  0  0  0  0  0  0
    3.1876   45.8324   53.5468 C   0  0  0  0  0  0  0  0  0  0  0  0
    4.5723   45.9608   53.0223 N   0  0  0  0  0  0  0  0  0  0  0  0
    5.4938   44.9330   52.9965 C   0  0  0  0  0  0  0  0  0  0  0  0
    5.1978   43.7477   53.1058 O   0  0  0  0  0  0  0  0  0  0  0  0
    6.9331   45.3181   52.8558 C   0  0  0  0  0  0  0  0  0  0  0  0
    7.3891   46.3861   53.6470 C   0  0  0  0  0  0  0  0  0  0  0  0
    8.7130   46.8267   53.5625 C   0  0  0  0  0  0  0  0  0  0  0  0
    9.5956   46.2109   52.6782 C   0  0  0  0  0  0  0  0  0  0  0  0
    9.1600   45.1451   51.8910 C   0  0  0  0  0  0  0  0  0  0  0  0
    7.8434   44.6830   51.9967 C   0  0  0  0  0  0  0  0  0  0  0  0
    7.4506   43.6303   51.2064 O   0  0  0  0  0  0  0  0  0  0  0  0
    7.1948   44.0755   49.8660 C   0  0  0  0  0  0  0  0  0  0  0  0
    8.1625   43.3821   48.9568 C   0  0  0  0  0  0  0  0  0  0  0  0
    9.3431   44.1231   48.3820 C   0  0  0  0  0  0  0  0  0  0  0  0
    8.2048   43.7106   47.4871 C   0  0  0  0  0  0  0  0  0  0  0  0
    3.2914   45.1146   54.9144 C   0  0  0  0  0  0  0  0  0  0  0  0
    2.2235   45.5356   55.9125 C   0  0  0  0  0  0  0  0  0  0  0  0
    1.0421   45.9304   55.2289 O   0  0  0  0  0  0  0  0  0  0  0  0
    1.2354   47.1814   54.5689 C   0  0  0  0  0  0  0  0  0  0  0  0
    2.4814   47.1928   53.6867 C   0  0  0  0  0  0  0  0  0  0  0  0
    2.4349   43.2858   53.8764 H   0  0  0  0  0  0  0  0  0  0  0  0
    1.6708   43.0159   52.3421 H   0  0  0  0  0  0  0  0  0  0  0  0
    4.9965   46.8749   53.1602 H   0  0  0  0  0  0  0  0  0  0  0  0
    6.6952   46.8818   54.3419 H   0  0  0  0  0  0  0  0  0  0  0  0
    9.0574   47.6591   54.1938 H   0  0  0  0  0  0  0  0  0  0  0  0
   10.6343   46.5645   52.6009 H   0  0  0  0  0  0  0  0  0  0  0  0
    9.8539   44.6661   51.1845 H   0  0  0  0  0  0  0  0  0  0  0  0
    6.1640   43.8212   49.5782 H   0  0  0  0  0  0  0  0  0  0  0  0
    7.3174   45.1663   49.7951 H   0  0  0  0  0  0  0  0  0  0  0  0
    8.0329   42.4619   49.5453 H   0  0  0  0  0  0  0  0  0  0  0  0
    9.4961   45.1854   48.6230 H   0  0  0  0  0  0  0  0  0  0  0  0
   10.4320   43.9673   48.3774 H   0  0  0  0  0  0  0  0  0  0  0  0
    7.5265   44.4717   47.0741 H   0  0  0  0  0  0  0  0  0  0  0  0
    8.1182   43.1286   46.5577 H   0  0  0  0  0  0  0  0  0  0  0  0
    3.1999   44.0316   54.7452 H   0  0  0  0  0  0  0  0  0  0  0  0
    4.2629   45.3930   55.3488 H   0  0  0  0  0  0  0  0  0  0  0  0
    1.9935   44.6898   56.5771 H   0  0  0  0  0  0  0  0  0  0  0  0
    2.5981   46.3851   56.5024 H   0  0  0  0  0  0  0  0  0  0  0  0
    0.3566   47.3877   53.9403 H   0  0  0  0  0  0  0  0  0  0  0  0
    1.3687   47.9503   55.3442 H   0  0  0  0  0  0  0  0  0  0  0  0
    2.1859   47.5295   52.6820 H   0  0  0  0  0  0  0  0  0  0  0  0
    3.2008   47.8654   54.1767 H   0  0  0  0  0  0  0  0  0  0  0  0
  1  2  1  0
  2  3  2  0
  2  4  1  0
  4  5  1  0
  5  6  1  0
  6  7  2  0
  6  8  1  0
  8  9  2  0
  9 10  1  0
 10 11  2  0
 11 12  1  0
 12 13  2  0
 13 14  1  0
 14 15  1  0
 15 16  1  0
 16 17  1  0
 17 18  1  0
  4 19  1  0
 19 20  1  0
 20 21  1  0
 21 22  1  0
 22 23  1  0
 23  4  1  0
 13  8  1  0
 18 16  1  0
  1 24  1  0
  1 25  1  0
  5 26  1  0
  9 27  1  0
 10 28  1  0
 11 29  1  0
 12 30  1  0
 15 31  1  0
 15 32  1  0
 16 33  1  0
 17 34  1  0
 17 35  1  0
 18 36  1  0
 18 37  1  0
 19 38  1  0
 19 39  1  0
 20 40  1  0
 20 41  1  0
 22 42  1  0
 22 43  1  0
 23 44  1  0
 23 45  1  0
M  END
>  <meeko>  (3) 
{"is_sidechain": false}

>  <CID>  (3) 
Z1463055422

>  <pose_index>  (3) 
5

>  <docking_score>  (3) 
-8.062

>  <rmsd_to_best_selected>  (3) 
1.4934793970453843

>  <MWT>  (3) 
318.37299999999965

>  <TPSA>  (3) 
90.65

>  <logP>  (3) 
1.2396999999999994

>  <HBD>  (3) 
2

>  <HBA>  (3) 
4

>  <SMILES>  (3) 
[H]c1c([H])c([H])c(C(=O)N([H])C2(C(=O)N([H])[H])C([H])([H])C([H])([H])OC([H])([H])C2([H])[H])c(OC([H])([H])C2([H])C([H])([H])C2([H])[H])c1[H]

$$$$
Z1463055422_pose7
     RDKit          3D

 45 47  0  0  0  0  0  0  0  0999 V2000
    2.4504   42.9737   53.0866 N   0  0  0  0  0  0  0  0  0  0  0  0
    3.4063   43.7700   52.5257 C   0  0  0  0  0  0  0  0  0  0  0  0
    3.9990   43.3648   51.5248 O   0  0  0  0  0  0  0  0  0  0  0  0
    3.7567   45.1075   53.2619 C   0  0  0  0  0  0  0  0  0  0  0  0
    5.2412   45.1773   53.2846 N   0  0  0  0  0  0  0  0  0  0  0  0
    5.9632   46.2100   53.8466 C   0  0  0  0  0  0  0  0  0  0  0  0
    5.4961   47.0123   54.6488 O   0  0  0  0  0  0  0  0  0  0  0  0
    7.3899   46.3529   53.4143 C   0  0  0  0  0  0  0  0  0  0  0  0
    8.3530   46.4953   54.4269 C   0  0  0  0  0  0  0  0  0  0  0  0
    9.7056   46.6572   54.1113 C   0  0  0  0  0  0  0  0  0  0  0  0
   10.1092   46.6890   52.7788 C   0  0  0  0  0  0  0  0  0  0  0  0
    9.1665   46.5419   51.7624 C   0  0  0  0  0  0  0  0  0  0  0  0
    7.8159   46.3495   52.0769 C   0  0  0  0  0  0  0  0  0  0  0  0
    6.9152   46.2065   51.0498 O   0  0  0  0  0  0  0  0  0  0  0  0
    7.4643   45.3819   50.0108 C   0  0  0  0  0  0  0  0  0  0  0  0
    6.5924   44.1703   49.8747 C   0  0  0  0  0  0  0  0  0  0  0  0
    7.1539   42.8755   49.3468 C   0  0  0  0  0  0  0  0  0  0  0  0
    6.1826   43.6688   48.5143 C   0  0  0  0  0  0  0  0  0  0  0  0
    3.2900   44.9872   54.7320 C   0  0  0  0  0  0  0  0  0  0  0  0
    1.9439   45.6374   55.0061 C   0  0  0  0  0  0  0  0  0  0  0  0
    1.1375   45.6055   53.8367 O   0  0  0  0  0  0  0  0  0  0  0  0
    1.6315   46.5193   52.8580 C   0  0  0  0  0  0  0  0  0  0  0  0
    3.1190   46.3297   52.5761 C   0  0  0  0  0  0  0  0  0  0  0  0
    2.1903   43.0910   54.0631 H   0  0  0  0  0  0  0  0  0  0  0  0
    2.3268   42.0591   52.6755 H   0  0  0  0  0  0  0  0  0  0  0  0
    5.6985   44.7633   52.4754 H   0  0  0  0  0  0  0  0  0  0  0  0
    8.0393   46.4791   55.4811 H   0  0  0  0  0  0  0  0  0  0  0  0
   10.4501   46.7593   54.9146 H   0  0  0  0  0  0  0  0  0  0  0  0
   11.1710   46.8300   52.5285 H   0  0  0  0  0  0  0  0  0  0  0  0
    9.4849   46.5771   50.7101 H   0  0  0  0  0  0  0  0  0  0  0  0
    7.4817   45.9383   49.0621 H   0  0  0  0  0  0  0  0  0  0  0  0
    8.4942   45.0867   50.2601 H   0  0  0  0  0  0  0  0  0  0  0  0
    6.0569   44.4715   50.7871 H   0  0  0  0  0  0  0  0  0  0  0  0
    8.2113   42.8152   49.0498 H   0  0  0  0  0  0  0  0  0  0  0  0
    7.1979   41.8397   49.7144 H   0  0  0  0  0  0  0  0  0  0  0  0
    6.5303   44.1881   47.6091 H   0  0  0  0  0  0  0  0  0  0  0  0
    5.2230   43.4526   48.0219 H   0  0  0  0  0  0  0  0  0  0  0  0
    3.2169   43.9194   54.9859 H   0  0  0  0  0  0  0  0  0  0  0  0
    4.0319   45.5177   55.3469 H   0  0  0  0  0  0  0  0  0  0  0  0
    1.4344   45.0918   55.8140 H   0  0  0  0  0  0  0  0  0  0  0  0
    2.1043   46.6842   55.3035 H   0  0  0  0  0  0  0  0  0  0  0  0
    1.0736   46.3687   51.9220 H   0  0  0  0  0  0  0  0  0  0  0  0
    1.4943   47.5367   53.2529 H   0  0  0  0  0  0  0  0  0  0  0  0
    3.2497   46.2190   51.4895 H   0  0  0  0  0  0  0  0  0  0  0  0
    3.6268   47.2147   52.9871 H   0  0  0  0  0  0  0  0  0  0  0  0
  1  2  1  0
  2  3  2  0
  2  4  1  0
  4  5  1  0
  5  6  1  0
  6  7  2  0
  6  8  1  0
  8  9  2  0
  9 10  1  0
 10 11  2  0
 11 12  1  0
 12 13  2  0
 13 14  1  0
 14 15  1  0
 15 16  1  0
 16 17  1  0
 17 18  1  0
  4 19  1  0
 19 20  1  0
 20 21  1  0
 21 22  1  0
 22 23  1  0
 23  4  1  0
 13  8  1  0
 18 16  1  0
  1 24  1  0
  1 25  1  0
  5 26  1  0
  9 27  1  0
 10 28  1  0
 11 29  1  0
 12 30  1  0
 15 31  1  0
 15 32  1  0
 16 33  1  0
 17 34  1  0
 17 35  1  0
 18 36  1  0
 18 37  1  0
 19 38  1  0
 19 39  1  0
 20 40  1  0
 20 41  1  0
 22 42  1  0
 22 43  1  0
 23 44  1  0
 23 45  1  0
M  END
>  <meeko>  (4) 
{"is_sidechain": false}

>  <CID>  (4) 
Z1463055422

>  <pose_index>  (4) 
7

>  <docking_score>  (4) 
-7.95

>  <rmsd_to_best_selected>  (4) 
1.377440302458118

>  <MWT>  (4) 
318.37299999999965

>  <TPSA>  (4) 
90.65

>  <logP>  (4) 
1.2396999999999994

>  <HBD>  (4) 
2

>  <HBA>  (4) 
4

>  <SMILES>  (4) 
[H]c1c([H])c([H])c(C(=O)N([H])C2(C(=O)N([H])[H])C([H])([H])C([H])([H])OC([H])([H])C2([H])[H])c(OC([H])([H])C2([H])C([H])([H])C2([H])[H])c1[H]

$$$$
Z1463055422_pose8
     RDKit          3D

 45 47  0  0  0  0  0  0  0  0999 V2000
    2.3315   43.1166   52.8732 N   0  0  0  0  0  0  0  0  0  0  0  0
    3.3431   43.9078   52.4125 C   0  0  0  0  0  0  0  0  0  0  0  0
    3.9609   43.5514   51.4082 O   0  0  0  0  0  0  0  0  0  0  0  0
    3.7170   45.1709   53.2600 C   0  0  0  0  0  0  0  0  0  0  0  0
    5.2021   45.2244   53.2689 N   0  0  0  0  0  0  0  0  0  0  0  0
    5.9408   46.2335   53.8519 C   0  0  0  0  0  0  0  0  0  0  0  0
    5.4898   47.0175   54.6817 O   0  0  0  0  0  0  0  0  0  0  0  0
    7.3629   46.3742   53.4085 C   0  0  0  0  0  0  0  0  0  0  0  0
    8.3230   46.6139   54.4063 C   0  0  0  0  0  0  0  0  0  0  0  0
    9.6714   46.7805   54.0773 C   0  0  0  0  0  0  0  0  0  0  0  0
   10.0758   46.7201   52.7459 C   0  0  0  0  0  0  0  0  0  0  0  0
    9.1363   46.4761   51.7455 C   0  0  0  0  0  0  0  0  0  0  0  0
    7.7911   46.2781   52.0748 C   0  0  0  0  0  0  0  0  0  0  0  0
    6.8938   46.0389   51.0628 O   0  0  0  0  0  0  0  0  0  0  0  0
    7.5086   45.2690   50.0184 C   0  0  0  0  0  0  0  0  0  0  0  0
    6.7966   43.9527   49.9346 C   0  0  0  0  0  0  0  0  0  0  0  0
    7.4152   42.7896   49.2033 C   0  0  0  0  0  0  0  0  0  0  0  0
    6.2076   43.4812   48.6299 C   0  0  0  0  0  0  0  0  0  0  0  0
    3.2675   44.9222   54.7205 C   0  0  0  0  0  0  0  0  0  0  0  0
    1.9314   45.5586   55.0693 C   0  0  0  0  0  0  0  0  0  0  0  0
    1.1100   45.6385   53.9137 O   0  0  0  0  0  0  0  0  0  0  0  0
    1.6000   46.6326   53.0142 C   0  0  0  0  0  0  0  0  0  0  0  0
    3.0828   46.4546   52.6961 C   0  0  0  0  0  0  0  0  0  0  0  0
    2.0341   43.1728   53.8436 H   0  0  0  0  0  0  0  0  0  0  0  0
    2.1866   42.2405   52.3885 H   0  0  0  0  0  0  0  0  0  0  0  0
    5.6461   44.8289   52.4434 H   0  0  0  0  0  0  0  0  0  0  0  0
    8.0097   46.6710   55.4592 H   0  0  0  0  0  0  0  0  0  0  0  0
   10.4130   46.9594   54.8699 H   0  0  0  0  0  0  0  0  0  0  0  0
   11.1345   46.8646   52.4843 H   0  0  0  0  0  0  0  0  0  0  0  0
    9.4538   46.4391   50.6929 H   0  0  0  0  0  0  0  0  0  0  0  0
    7.4214   45.8024   49.0604 H   0  0  0  0  0  0  0  0  0  0  0  0
    8.5758   45.1137   50.2351 H   0  0  0  0  0  0  0  0  0  0  0  0
    6.4083   44.1148   50.9509 H   0  0  0  0  0  0  0  0  0  0  0  0
    8.3960   42.9038   48.7186 H   0  0  0  0  0  0  0  0  0  0  0  0
    7.6651   41.7508   49.4649 H   0  0  0  0  0  0  0  0  0  0  0  0
    6.3061   44.1008   47.7263 H   0  0  0  0  0  0  0  0  0  0  0  0
    5.2098   43.1572   48.2991 H   0  0  0  0  0  0  0  0  0  0  0  0
    3.1860   43.8365   54.8779 H   0  0  0  0  0  0  0  0  0  0  0  0
    4.0228   45.3870   55.3712 H   0  0  0  0  0  0  0  0  0  0  0  0
    1.4264   44.9482   55.8325 H   0  0  0  0  0  0  0  0  0  0  0  0
    2.1070   46.5733   55.4559 H   0  0  0  0  0  0  0  0  0  0  0  0
    1.0284   46.5720   52.0763 H   0  0  0  0  0  0  0  0  0  0  0  0
    1.4780   47.6119   53.5002 H   0  0  0  0  0  0  0  0  0  0  0  0
    3.1984   46.4408   51.6023 H   0  0  0  0  0  0  0  0  0  0  0  0
    3.6047   47.2942   53.1786 H   0  0  0  0  0  0  0  0  0  0  0  0
  1  2  1  0
  2  3  2  0
  2  4  1  0
  4  5  1  0
  5  6  1  0
  6  7  2  0
  6  8  1  0
  8  9  2  0
  9 10  1  0
 10 11  2  0
 11 12  1  0
 12 13  2  0
 13 14  1  0
 14 15  1  0
 15 16  1  0
 16 17  1  0
 17 18  1  0
  4 19  1  0
 19 20  1  0
 20 21  1  0
 21 22  1  0
 22 23  1  0
 23  4  1  0
 13  8  1  0
 18 16  1  0
  1 24  1  0
  1 25  1  0
  5 26  1  0
  9 27  1  0
 10 28  1  0
 11 29  1  0
 12 30  1  0
 15 31  1  0
 15 32  1  0
 16 33  1  0
 17 34  1  0
 17 35  1  0
 18 36  1  0
 18 37  1  0
 19 38  1  0
 19 39  1  0
 20 40  1  0
 20 41  1  0
 22 42  1  0
 22 43  1  0
 23 44  1  0
 23 45  1  0
M  END
>  <meeko>  (5) 
{"is_sidechain": false}

>  <CID>  (5) 
Z1463055422

>  <pose_index>  (5) 
8

>  <docking_score>  (5) 
-7.818

>  <rmsd_to_best_selected>  (5) 
1.305178407089264

>  <MWT>  (5) 
318.37299999999965

>  <TPSA>  (5) 
90.65

>  <logP>  (5) 
1.2396999999999994

>  <HBD>  (5) 
2

>  <HBA>  (5) 
4

>  <SMILES>  (5) 
[H]c1c([H])c([H])c(C(=O)N([H])C2(C(=O)N([H])[H])C([H])([H])C([H])([H])OC([H])([H])C2([H])[H])c(OC([H])([H])C2([H])C([H])([H])C2([H])[H])c1[H]

$$$$
Z1463055422_pose9
     RDKit          3D

 45 47  0  0  0  0  0  0  0  0999 V2000
    2.3949   43.3484   55.3855 N   0  0  0  0  0  0  0  0  0  0  0  0
    3.1628   43.6571   54.2995 C   0  0  0  0  0  0  0  0  0  0  0  0
    3.6663   42.7392   53.6522 O   0  0  0  0  0  0  0  0  0  0  0  0
    3.4336   45.1730   54.0137 C   0  0  0  0  0  0  0  0  0  0  0  0
    4.9125   45.3191   53.9859 N   0  0  0  0  0  0  0  0  0  0  0  0
    5.6202   45.8658   52.9347 C   0  0  0  0  0  0  0  0  0  0  0  0
    5.1163   46.5639   52.0612 O   0  0  0  0  0  0  0  0  0  0  0  0
    7.0815   45.5484   52.8659 C   0  0  0  0  0  0  0  0  0  0  0  0
    7.8981   46.0708   53.8842 C   0  0  0  0  0  0  0  0  0  0  0  0
    9.2767   45.8433   53.8854 C   0  0  0  0  0  0  0  0  0  0  0  0
    9.8594   45.0985   52.8627 C   0  0  0  0  0  0  0  0  0  0  0  0
    9.0624   44.5665   51.8493 C   0  0  0  0  0  0  0  0  0  0  0  0
    7.6778   44.7685   51.8631 C   0  0  0  0  0  0  0  0  0  0  0  0
    6.9247   44.2284   50.8490 O   0  0  0  0  0  0  0  0  0  0  0  0
    6.9261   45.0960   49.7048 C   0  0  0  0  0  0  0  0  0  0  0  0
    7.6936   44.4167   48.6118 C   0  0  0  0  0  0  0  0  0  0  0  0
    9.0434   44.9329   48.1864 C   0  0  0  0  0  0  0  0  0  0  0  0
    7.8597   45.0761   47.2677 C   0  0  0  0  0  0  0  0  0  0  0  0
    2.9239   45.9919   55.2237 C   0  0  0  0  0  0  0  0  0  0  0  0
    1.5439   46.5968   55.0204 C   0  0  0  0  0  0  0  0  0  0  0  0
    0.7788   45.7848   54.1413 O   0  0  0  0  0  0  0  0  0  0  0  0
    1.2664   45.8912   52.8043 C   0  0  0  0  0  0  0  0  0  0  0  0
    2.7693   45.6435   52.7065 C   0  0  0  0  0  0  0  0  0  0  0  0
    2.2511   44.0313   56.1250 H   0  0  0  0  0  0  0  0  0  0  0  0
    2.3354   42.3696   55.6315 H   0  0  0  0  0  0  0  0  0  0  0  0
    5.4210   44.5849   54.4722 H   0  0  0  0  0  0  0  0  0  0  0  0
    7.4456   46.6666   54.6906 H   0  0  0  0  0  0  0  0  0  0  0  0
    9.9014   46.2520   54.6933 H   0  0  0  0  0  0  0  0  0  0  0  0
   10.9464   44.9301   52.8543 H   0  0  0  0  0  0  0  0  0  0  0  0
    9.5236   43.9863   51.0366 H   0  0  0  0  0  0  0  0  0  0  0  0
    5.8930   45.2821   49.3759 H   0  0  0  0  0  0  0  0  0  0  0  0
    7.3907   46.0608   49.9564 H   0  0  0  0  0  0  0  0  0  0  0  0
    7.3059   43.4484   48.9612 H   0  0  0  0  0  0  0  0  0  0  0  0
    9.4714   45.8209   48.6745 H   0  0  0  0  0  0  0  0  0  0  0  0
   10.0495   44.4974   48.0963 H   0  0  0  0  0  0  0  0  0  0  0  0
    7.4227   46.0689   47.0845 H   0  0  0  0  0  0  0  0  0  0  0  0
    7.6426   44.7887   46.2284 H   0  0  0  0  0  0  0  0  0  0  0  0
    2.8855   45.3279   56.0999 H   0  0  0  0  0  0  0  0  0  0  0  0
    3.6233   46.8300   55.3595 H   0  0  0  0  0  0  0  0  0  0  0  0
    1.0306   46.6659   55.9909 H   0  0  0  0  0  0  0  0  0  0  0  0
    1.6519   47.5996   54.5814 H   0  0  0  0  0  0  0  0  0  0  0  0
    0.7458   45.1505   52.1794 H   0  0  0  0  0  0  0  0  0  0  0  0
    1.0747   46.9183   52.4603 H   0  0  0  0  0  0  0  0  0  0  0  0
    2.9398   44.8734   51.9398 H   0  0  0  0  0  0  0  0  0  0  0  0
    3.2269   46.6125   52.4585 H   0  0  0  0  0  0  0  0  0  0  0  0
  1  2  1  0
  2  3  2  0
  2  4  1  0
  4  5  1  0
  5  6  1  0
  6  7  2  0
  6  8  1  0
  8  9  2  0
  9 10  1  0
 10 11  2  0
 11 12  1  0
 12 13  2  0
 13 14  1  0
 14 15  1  0
 15 16  1  0
 16 17  1  0
 17 18  1  0
  4 19  1  0
 19 20  1  0
 20 21  1  0
 21 22  1  0
 22 23  1  0
 23  4  1  0
 13  8  1  0
 18 16  1  0
  1 24  1  0
  1 25  1  0
  5 26  1  0
  9 27  1  0
 10 28  1  0
 11 29  1  0
 12 30  1  0
 15 31  1  0
 15 32  1  0
 16 33  1  0
 17 34  1  0
 17 35  1  0
 18 36  1  0
 18 37  1  0
 19 38  1  0
 19 39  1  0
 20 40  1  0
 20 41  1  0
 22 42  1  0
 22 43  1  0
 23 44  1  0
 23 45  1  0
M  END
>  <meeko>  (6) 
{"is_sidechain": false}

>  <CID>  (6) 
Z1463055422

>  <pose_index>  (6) 
9

>  <docking_score>  (6) 
-7.524

>  <rmsd_to_best_selected>  (6) 
1.5807934579600627

>  <MWT>  (6) 
318.37299999999965

>  <TPSA>  (6) 
90.65

>  <logP>  (6) 
1.2396999999999994

>  <HBD>  (6) 
2

>  <HBA>  (6) 
4

>  <SMILES>  (6) 
[H]c1c([H])c([H])c(C(=O)N([H])C2(C(=O)N([H])[H])C([H])([H])C([H])([H])OC([H])([H])C2([H])[H])c(OC([H])([H])C2([H])C([H])([H])C2([H])[H])c1[H]

$$$$
