Z1576583090_pose1
     RDKit          3D

 43 46  0  0  0  0  0  0  0  0999 V2000
   -0.7780   43.6370   52.8620 C   0  0  0  0  0  0  0  0  0  0  0  0
    0.2890   44.1920   53.6560 N   0  0  0  0  0  0  0  0  0  0  0  0
   -0.0120   44.9370   54.7500 N   0  0  0  0  0  0  0  0  0  0  0  0
    1.1870   45.2810   55.2400 C   0  0  0  0  0  0  0  0  0  0  0  0
    2.2320   44.7670   54.4660 C   0  0  0  0  0  0  0  0  0  0  0  0
    3.6590   44.8190   54.5200 C   0  0  0  0  0  0  0  0  0  0  0  0
    4.3030   45.4060   55.3810 O   0  0  0  0  0  0  0  0  0  0  0  0
    4.2460   44.1280   53.4780 N   0  0  0  0  0  0  0  0  0  0  0  0
    3.5530   43.4570   52.4780 C   0  0  0  0  0  0  0  0  0  0  0  0
    4.2810   42.8030   51.5200 N   0  0  0  0  0  0  0  0  0  0  0  0
    5.4090   43.3040   50.8300 C   0  0  0  0  0  0  0  0  0  0  0  0
    5.8820   42.5810   49.7270 C   0  0  0  0  0  0  0  0  0  0  0  0
    6.9970   43.0160   49.0130 C   0  0  0  0  0  0  0  0  0  0  0  0
    7.6520   44.1840   49.4000 C   0  0  0  0  0  0  0  0  0  0  0  0
    7.1980   44.9260   50.4920 C   0  0  0  0  0  0  0  0  0  0  0  0
    7.9280   46.0510   50.7510 O   0  0  0  0  0  0  0  0  0  0  0  0
    8.2090   46.3940   52.1010 C   0  0  0  0  0  0  0  0  0  0  0  0
    9.7110   46.2600   52.3460 C   0  0  0  0  0  0  0  0  0  0  0  0
    9.9630   47.1060   53.5870 C   0  0  0  0  0  0  0  0  0  0  0  0
    8.8630   48.1660   53.5990 C   0  0  0  0  0  0  0  0  0  0  0  0
    7.9850   47.8760   52.3880 C   0  0  0  0  0  0  0  0  0  0  0  0
    6.0760   44.4850   51.1980 C   0  0  0  0  0  0  0  0  0  0  0  0
    2.2450   43.3920   52.4420 N   0  0  0  0  0  0  0  0  0  0  0  0
    1.6340   44.0670   53.4470 C   0  0  0  0  0  0  0  0  0  0  0  0
   -1.5564   43.2321   53.5255 H   0  0  0  0  0  0  0  0  0  0  0  0
   -1.2105   44.4244   52.2272 H   0  0  0  0  0  0  0  0  0  0  0  0
   -0.3816   42.8308   52.2272 H   0  0  0  0  0  0  0  0  0  0  0  0
    1.3316   45.8937   56.1421 H   0  0  0  0  0  0  0  0  0  0  0  0
    5.2530   44.0910   53.4800 H   0  0  0  0  0  0  0  0  0  0  0  0
    3.6830   42.2700   50.8940 H   0  0  0  0  0  0  0  0  0  0  0  0
    5.3669   41.6586   49.4208 H   0  0  0  0  0  0  0  0  0  0  0  0
    7.3585   42.4404   48.1481 H   0  0  0  0  0  0  0  0  0  0  0  0
    8.5352   44.5244   48.8396 H   0  0  0  0  0  0  0  0  0  0  0  0
    7.5629   45.7444   52.7097 H   0  0  0  0  0  0  0  0  0  0  0  0
    9.9848   45.2101   52.5272 H   0  0  0  0  0  0  0  0  0  0  0  0
   10.3099   46.5877   51.4835 H   0  0  0  0  0  0  0  0  0  0  0  0
    9.9055   46.4842   54.4926 H   0  0  0  0  0  0  0  0  0  0  0  0
   10.9640   47.5617   53.5697 H   0  0  0  0  0  0  0  0  0  0  0  0
    8.2730   48.0938   54.5246 H   0  0  0  0  0  0  0  0  0  0  0  0
    9.2828   49.1819   53.5575 H   0  0  0  0  0  0  0  0  0  0  0  0
    6.9274   48.0721   52.6184 H   0  0  0  0  0  0  0  0  0  0  0  0
    8.2366   48.5120   51.5265 H   0  0  0  0  0  0  0  0  0  0  0  0
    5.7094   45.0705   52.0541 H   0  0  0  0  0  0  0  0  0  0  0  0
  1  2  1  0
  2  3  1  0
  3  4  2  0
  4  5  1  0
  5  6  1  0
  6  7  2  0
  6  8  1  0
  8  9  1  0
  9 10  1  0
 10 11  1  0
 11 12  2  0
 12 13  1  0
 13 14  2  0
 14 15  1  0
 15 16  1  0
 16 17  1  0
 17 18  1  0
 18 19  1  0
 19 20  1  0
 20 21  1  0
 15 22  2  0
  9 23  2  0
 23 24  1  0
 24  2  1  0
 24  5  2  0
 22 11  1  0
 21 17  1  0
  1 25  1  0
  1 26  1  0
  1 27  1  0
  4 28  1  0
  8 29  1  0
 10 30  1  0
 12 31  1  0
 13 32  1  0
 14 33  1  0
 17 34  1  0
 18 35  1  0
 18 36  1  0
 19 37  1  0
 19 38  1  0
 20 39  1  0
 20 40  1  0
 21 41  1  0
 21 42  1  0
 22 43  1  0
M  END
>  <meeko>  (1) 
{"is_sidechain": false}

>  <CID>  (1) 
Z1576583090

>  <pose_index>  (1) 
1

>  <docking_score>  (1) 
-9.894

>  <rmsd_to_best_selected>  (1) 
0.0

>  <MWT>  (1) 
325.3719999999997

>  <TPSA>  (1) 
84.83

>  <logP>  (1) 
2.7216000000000005

>  <HBD>  (1) 
2

>  <HBA>  (1) 
6

>  <SMILES>  (1) 
[H]c1c([H])c(OC2([H])C([H])([H])C([H])([H])C([H])([H])C2([H])[H])c([H])c(N([H])c2nc3c(c([H])nn3C([H])([H])[H])c(=O)n2[H])c1[H]

$$$$
Z1576583090_pose2
     RDKit          3D

 43 46  0  0  0  0  0  0  0  0999 V2000
   -1.0207   43.2759   52.6182 C   0  0  0  0  0  0  0  0  0  0  0  0
   -0.0808   43.9983   53.4371 N   0  0  0  0  0  0  0  0  0  0  0  0
   -0.5425   44.8050   54.4269 N   0  0  0  0  0  0  0  0  0  0  0  0
    0.5724   45.3055   54.9751 C   0  0  0  0  0  0  0  0  0  0  0  0
    1.7231   44.8296   54.3406 C   0  0  0  0  0  0  0  0  0  0  0  0
    3.1298   45.0222   54.5024 C   0  0  0  0  0  0  0  0  0  0  0  0
    3.6402   45.7431   55.3513 O   0  0  0  0  0  0  0  0  0  0  0  0
    3.8660   44.3027   53.5820 N   0  0  0  0  0  0  0  0  0  0  0  0
    3.3267   43.4816   52.5992 C   0  0  0  0  0  0  0  0  0  0  0  0
    4.1918   42.8198   51.7698 N   0  0  0  0  0  0  0  0  0  0  0  0
    5.3266   43.3644   51.1269 C   0  0  0  0  0  0  0  0  0  0  0  0
    5.9262   42.6180   50.1028 C   0  0  0  0  0  0  0  0  0  0  0  0
    7.0552   43.0957   49.4402 C   0  0  0  0  0  0  0  0  0  0  0  0
    7.5967   44.3290   49.7964 C   0  0  0  0  0  0  0  0  0  0  0  0
    7.0152   45.0941   50.8094 C   0  0  0  0  0  0  0  0  0  0  0  0
    7.6442   46.2839   51.0474 O   0  0  0  0  0  0  0  0  0  0  0  0
    8.5390   46.3813   52.1481 C   0  0  0  0  0  0  0  0  0  0  0  0
    9.9464   46.6517   51.6218 C   0  0  0  0  0  0  0  0  0  0  0  0
   10.6869   47.2325   52.8196 C   0  0  0  0  0  0  0  0  0  0  0  0
    9.6179   47.8835   53.6952 C   0  0  0  0  0  0  0  0  0  0  0  0
    8.2876   47.6251   52.9983 C   0  0  0  0  0  0  0  0  0  0  0  0
    5.8804   44.6104   51.4656 C   0  0  0  0  0  0  0  0  0  0  0  0
    2.0375   43.2881   52.4656 N   0  0  0  0  0  0  0  0  0  0  0  0
    1.2825   43.9866   53.3491 C   0  0  0  0  0  0  0  0  0  0  0  0
   -1.7174   42.7202   53.2630 H   0  0  0  0  0  0  0  0  0  0  0  0
   -1.5847   43.9852   51.9946 H   0  0  0  0  0  0  0  0  0  0  0  0
   -0.4777   42.5707   51.9717 H   0  0  0  0  0  0  0  0  0  0  0  0
    0.5813   46.0066   55.8227 H   0  0  0  0  0  0  0  0  0  0  0  0
    4.8691   44.3634   53.6671 H   0  0  0  0  0  0  0  0  0  0  0  0
    3.7014   42.1781   51.1519 H   0  0  0  0  0  0  0  0  0  0  0  0
    5.5006   41.6441   49.8190 H   0  0  0  0  0  0  0  0  0  0  0  0
    7.5174   42.5010   48.6385 H   0  0  0  0  0  0  0  0  0  0  0  0
    8.4901   44.7033   49.2751 H   0  0  0  0  0  0  0  0  0  0  0  0
    8.4098   45.4484   52.7163 H   0  0  0  0  0  0  0  0  0  0  0  0
   10.4222   45.7195   51.2832 H   0  0  0  0  0  0  0  0  0  0  0  0
    9.9496   47.3290   50.7550 H   0  0  0  0  0  0  0  0  0  0  0  0
   11.2028   46.4349   53.3743 H   0  0  0  0  0  0  0  0  0  0  0  0
   11.4525   47.9586   52.5086 H   0  0  0  0  0  0  0  0  0  0  0  0
    9.6180   47.4312   54.6979 H   0  0  0  0  0  0  0  0  0  0  0  0
    9.8029   48.9603   53.8224 H   0  0  0  0  0  0  0  0  0  0  0  0
    7.4921   47.4388   53.7349 H   0  0  0  0  0  0  0  0  0  0  0  0
    7.9558   48.4841   52.3966 H   0  0  0  0  0  0  0  0  0  0  0  0
    5.4141   45.2135   52.2586 H   0  0  0  0  0  0  0  0  0  0  0  0
  1  2  1  0
  2  3  1  0
  3  4  2  0
  4  5  1  0
  5  6  1  0
  6  7  2  0
  6  8  1  0
  8  9  1  0
  9 10  1  0
 10 11  1  0
 11 12  2  0
 12 13  1  0
 13 14  2  0
 14 15  1  0
 15 16  1  0
 16 17  1  0
 17 18  1  0
 18 19  1  0
 19 20  1  0
 20 21  1  0
 15 22  2  0
  9 23  2  0
 23 24  1  0
 24  2  1  0
 24  5  2  0
 22 11  1  0
 21 17  1  0
  1 25  1  0
  1 26  1  0
  1 27  1  0
  4 28  1  0
  8 29  1  0
 10 30  1  0
 12 31  1  0
 13 32  1  0
 14 33  1  0
 17 34  1  0
 18 35  1  0
 18 36  1  0
 19 37  1  0
 19 38  1  0
 20 39  1  0
 20 40  1  0
 21 41  1  0
 21 42  1  0
 22 43  1  0
M  END
>  <meeko>  (2) 
{"is_sidechain": false}

>  <CID>  (2) 
Z1576583090

>  <pose_index>  (2) 
2

>  <docking_score>  (2) 
-9.502

>  <rmsd_to_best_selected>  (2) 
0.7461054100561821

>  <MWT>  (2) 
325.3719999999997

>  <TPSA>  (2) 
84.83

>  <logP>  (2) 
2.7216000000000005

>  <HBD>  (2) 
2

>  <HBA>  (2) 
6

>  <SMILES>  (2) 
[H]c1c([H])c(OC2([H])C([H])([H])C([H])([H])C([H])([H])C2([H])[H])c([H])c(N([H])c2nc3c(c([H])nn3C([H])([H])[H])c(=O)n2[H])c1[H]

$$$$
Z1576583090_pose3
     RDKit          3D

 43 46  0  0  0  0  0  0  0  0999 V2000
   -0.8380   42.4347   52.9717 C   0  0  0  0  0  0  0  0  0  0  0  0
   -0.1448   43.5924   53.4773 N   0  0  0  0  0  0  0  0  0  0  0  0
   -0.8366   44.5336   54.1697 N   0  0  0  0  0  0  0  0  0  0  0  0
    0.0938   45.4443   54.4845 C   0  0  0  0  0  0  0  0  0  0  0  0
    1.3547   45.0905   53.9957 C   0  0  0  0  0  0  0  0  0  0  0  0
    2.6606   45.6683   54.0336 C   0  0  0  0  0  0  0  0  0  0  0  0
    2.9383   46.7277   54.5833 O   0  0  0  0  0  0  0  0  0  0  0  0
    3.5934   44.8976   53.3676 N   0  0  0  0  0  0  0  0  0  0  0  0
    3.3194   43.6965   52.7237 C   0  0  0  0  0  0  0  0  0  0  0  0
    4.3587   43.0391   52.1208 N   0  0  0  0  0  0  0  0  0  0  0  0
    5.3524   43.6121   51.2950 C   0  0  0  0  0  0  0  0  0  0  0  0
    5.5919   43.0206   50.0459 C   0  0  0  0  0  0  0  0  0  0  0  0
    6.5675   43.5311   49.1917 C   0  0  0  0  0  0  0  0  0  0  0  0
    7.3141   44.6421   49.5796 C   0  0  0  0  0  0  0  0  0  0  0  0
    7.0906   45.2526   50.8151 C   0  0  0  0  0  0  0  0  0  0  0  0
    7.8864   46.3355   51.0600 O   0  0  0  0  0  0  0  0  0  0  0  0
    8.7451   46.3177   52.1930 C   0  0  0  0  0  0  0  0  0  0  0  0
   10.1937   46.4067   51.7201 C   0  0  0  0  0  0  0  0  0  0  0  0
   10.9577   46.8869   52.9475 C   0  0  0  0  0  0  0  0  0  0  0  0
    9.9471   47.6671   53.7873 C   0  0  0  0  0  0  0  0  0  0  0  0
    8.6221   47.5809   53.0411 C   0  0  0  0  0  0  0  0  0  0  0  0
    6.1076   44.7369   51.6638 C   0  0  0  0  0  0  0  0  0  0  0  0
    2.1260   43.1563   52.7083 N   0  0  0  0  0  0  0  0  0  0  0  0
    1.1823   43.8922   53.3469 C   0  0  0  0  0  0  0  0  0  0  0  0
   -0.8765   41.6605   53.7522 H   0  0  0  0  0  0  0  0  0  0  0  0
   -1.8616   42.7167   52.6841 H   0  0  0  0  0  0  0  0  0  0  0  0
   -0.3050   42.0430   52.0928 H   0  0  0  0  0  0  0  0  0  0  0  0
   -0.1098   46.3603   55.0586 H   0  0  0  0  0  0  0  0  0  0  0  0
    4.5450   45.2292   53.3906 H   0  0  0  0  0  0  0  0  0  0  0  0
    4.0703   42.1326   51.7635 H   0  0  0  0  0  0  0  0  0  0  0  0
    5.0033   42.1442   49.7371 H   0  0  0  0  0  0  0  0  0  0  0  0
    6.7477   43.0588   48.2148 H   0  0  0  0  0  0  0  0  0  0  0  0
    8.0866   45.0416   48.9062 H   0  0  0  0  0  0  0  0  0  0  0  0
    8.4774   45.4082   52.7509 H   0  0  0  0  0  0  0  0  0  0  0  0
   10.5589   45.4219   51.3936 H   0  0  0  0  0  0  0  0  0  0  0  0
   10.3152   47.0791   50.8580 H   0  0  0  0  0  0  0  0  0  0  0  0
   11.3474   46.0295   53.5159 H   0  0  0  0  0  0  0  0  0  0  0  0
   11.8205   47.5101   52.6696 H   0  0  0  0  0  0  0  0  0  0  0  0
    9.8525   47.2169   54.7865 H   0  0  0  0  0  0  0  0  0  0  0  0
   10.2622   48.7116   53.9275 H   0  0  0  0  0  0  0  0  0  0  0  0
    7.7827   47.4956   53.7469 H   0  0  0  0  0  0  0  0  0  0  0  0
    8.4243   48.4762   52.4333 H   0  0  0  0  0  0  0  0  0  0  0  0
    5.9228   45.2191   52.6351 H   0  0  0  0  0  0  0  0  0  0  0  0
  1  2  1  0
  2  3  1  0
  3  4  2  0
  4  5  1  0
  5  6  1  0
  6  7  2  0
  6  8  1  0
  8  9  1  0
  9 10  1  0
 10 11  1  0
 11 12  2  0
 12 13  1  0
 13 14  2  0
 14 15  1  0
 15 16  1  0
 16 17  1  0
 17 18  1  0
 18 19  1  0
 19 20  1  0
 20 21  1  0
 15 22  2  0
  9 23  2  0
 23 24  1  0
 24  2  1  0
 24  5  2  0
 22 11  1  0
 21 17  1  0
  1 25  1  0
  1 26  1  0
  1 27  1  0
  4 28  1  0
  8 29  1  0
 10 30  1  0
 12 31  1  0
 13 32  1  0
 14 33  1  0
 17 34  1  0
 18 35  1  0
 18 36  1  0
 19 37  1  0
 19 38  1  0
 20 39  1  0
 20 40  1  0
 21 41  1  0
 21 42  1  0
 22 43  1  0
M  END
>  <meeko>  (3) 
{"is_sidechain": false}

>  <CID>  (3) 
Z1576583090

>  <pose_index>  (3) 
3

>  <docking_score>  (3) 
-9.162

>  <rmsd_to_best_selected>  (3) 
1.1046774729490583

>  <MWT>  (3) 
325.3719999999997

>  <TPSA>  (3) 
84.83

>  <logP>  (3) 
2.7216000000000005

>  <HBD>  (3) 
2

>  <HBA>  (3) 
6

>  <SMILES>  (3) 
[H]c1c([H])c(OC2([H])C([H])([H])C([H])([H])C([H])([H])C2([H])[H])c([H])c(N([H])c2nc3c(c([H])nn3C([H])([H])[H])c(=O)n2[H])c1[H]

$$$$
Z1576583090_pose6
     RDKit          3D

 43 46  0  0  0  0  0  0  0  0999 V2000
   -0.8264   42.9175   52.4592 C   0  0  0  0  0  0  0  0  0  0  0  0
   -0.1041   44.0345   53.0146 N   0  0  0  0  0  0  0  0  0  0  0  0
   -0.7952   45.0912   53.5155 N   0  0  0  0  0  0  0  0  0  0  0  0
    0.1650   45.9246   53.9406 C   0  0  0  0  0  0  0  0  0  0  0  0
    1.4426   45.4079   53.7081 C   0  0  0  0  0  0  0  0  0  0  0  0
    2.7794   45.8525   53.9483 C   0  0  0  0  0  0  0  0  0  0  0  0
    3.0749   46.9163   54.4788 O   0  0  0  0  0  0  0  0  0  0  0  0
    3.7195   44.9411   53.5083 N   0  0  0  0  0  0  0  0  0  0  0  0
    3.4267   43.7290   52.8948 C   0  0  0  0  0  0  0  0  0  0  0  0
    4.4737   42.9257   52.5299 N   0  0  0  0  0  0  0  0  0  0  0  0
    5.6545   43.3295   51.8644 C   0  0  0  0  0  0  0  0  0  0  0  0
    5.6203   43.4356   50.4674 C   0  0  0  0  0  0  0  0  0  0  0  0
    6.7545   43.8172   49.7528 C   0  0  0  0  0  0  0  0  0  0  0  0
    7.9379   44.0963   50.4333 C   0  0  0  0  0  0  0  0  0  0  0  0
    7.9971   44.0035   51.8258 C   0  0  0  0  0  0  0  0  0  0  0  0
    9.2153   44.3140   52.3598 O   0  0  0  0  0  0  0  0  0  0  0  0
    9.4377   45.6303   52.8497 C   0  0  0  0  0  0  0  0  0  0  0  0
   10.2889   46.3990   51.8414 C   0  0  0  0  0  0  0  0  0  0  0  0
   10.0396   47.8619   52.1818 C   0  0  0  0  0  0  0  0  0  0  0  0
    8.6542   47.9098   52.8254 C   0  0  0  0  0  0  0  0  0  0  0  0
    8.1622   46.4688   52.8737 C   0  0  0  0  0  0  0  0  0  0  0  0
    6.8530   43.6251   52.5339 C   0  0  0  0  0  0  0  0  0  0  0  0
    2.2011   43.3134   52.6956 N   0  0  0  0  0  0  0  0  0  0  0  0
    1.2505   44.1880   53.1098 C   0  0  0  0  0  0  0  0  0  0  0  0
   -1.7171   43.2844   51.9282 H   0  0  0  0  0  0  0  0  0  0  0  0
   -0.1778   42.3746   51.7559 H   0  0  0  0  0  0  0  0  0  0  0  0
   -1.1355   42.2411   53.2698 H   0  0  0  0  0  0  0  0  0  0  0  0
   -0.0293   46.8978   54.4151 H   0  0  0  0  0  0  0  0  0  0  0  0
    4.6848   45.1758   53.6844 H   0  0  0  0  0  0  0  0  0  0  0  0
    4.1519   42.0274   52.1781 H   0  0  0  0  0  0  0  0  0  0  0  0
    4.6871   43.2151   49.9284 H   0  0  0  0  0  0  0  0  0  0  0  0
    6.7155   43.8978   48.6565 H   0  0  0  0  0  0  0  0  0  0  0  0
    8.8342   44.3925   49.8685 H   0  0  0  0  0  0  0  0  0  0  0  0
    9.8772   45.5018   53.8499 H   0  0  0  0  0  0  0  0  0  0  0  0
   11.3534   46.1473   51.9571 H   0  0  0  0  0  0  0  0  0  0  0  0
   10.0291   46.1582   50.8000 H   0  0  0  0  0  0  0  0  0  0  0  0
   10.8019   48.2266   52.8861 H   0  0  0  0  0  0  0  0  0  0  0  0
   10.0927   48.5003   51.2876 H   0  0  0  0  0  0  0  0  0  0  0  0
    8.7194   48.3254   53.8418 H   0  0  0  0  0  0  0  0  0  0  0  0
    7.9669   48.5507   52.2537 H   0  0  0  0  0  0  0  0  0  0  0  0
    7.5917   46.2832   53.7957 H   0  0  0  0  0  0  0  0  0  0  0  0
    7.4870   46.2285   52.0392 H   0  0  0  0  0  0  0  0  0  0  0  0
    6.8920   43.5579   53.6312 H   0  0  0  0  0  0  0  0  0  0  0  0
  1  2  1  0
  2  3  1  0
  3  4  2  0
  4  5  1  0
  5  6  1  0
  6  7  2  0
  6  8  1  0
  8  9  1  0
  9 10  1  0
 10 11  1  0
 11 12  2  0
 12 13  1  0
 13 14  2  0
 14 15  1  0
 15 16  1  0
 16 17  1  0
 17 18  1  0
 18 19  1  0
 19 20  1  0
 20 21  1  0
 15 22  2  0
  9 23  2  0
 23 24  1  0
 24  2  1  0
 24  5  2  0
 22 11  1  0
 21 17  1  0
  1 25  1  0
  1 26  1  0
  1 27  1  0
  4 28  1  0
  8 29  1  0
 10 30  1  0
 12 31  1  0
 13 32  1  0
 14 33  1  0
 17 34  1  0
 18 35  1  0
 18 36  1  0
 19 37  1  0
 19 38  1  0
 20 39  1  0
 20 40  1  0
 21 41  1  0
 21 42  1  0
 22 43  1  0
M  END
>  <meeko>  (4) 
{"is_sidechain": false}

>  <CID>  (4) 
Z1576583090

>  <pose_index>  (4) 
6

>  <docking_score>  (4) 
-8.732

>  <rmsd_to_best_selected>  (4) 
1.483878385235582

>  <MWT>  (4) 
325.3719999999997

>  <TPSA>  (4) 
84.83

>  <logP>  (4) 
2.7216000000000005

>  <HBD>  (4) 
2

>  <HBA>  (4) 
6

>  <SMILES>  (4) 
[H]c1c([H])c(OC2([H])C([H])([H])C([H])([H])C([H])([H])C2([H])[H])c([H])c(N([H])c2nc3c(c([H])nn3C([H])([H])[H])c(=O)n2[H])c1[H]

$$$$
Z1576583090_pose7
     RDKit          3D

 43 46  0  0  0  0  0  0  0  0999 V2000
   -0.7432   44.0647   51.9110 C   0  0  0  0  0  0  0  0  0  0  0  0
    0.1581   44.7070   52.8343 N   0  0  0  0  0  0  0  0  0  0  0  0
   -0.3073   45.6972   53.6390 N   0  0  0  0  0  0  0  0  0  0  0  0
    0.7687   46.0578   54.3516 C   0  0  0  0  0  0  0  0  0  0  0  0
    1.8990   45.3137   54.0012 C   0  0  0  0  0  0  0  0  0  0  0  0
    3.2639   45.2758   54.4213 C   0  0  0  0  0  0  0  0  0  0  0  0
    3.7457   45.9942   55.2896 O   0  0  0  0  0  0  0  0  0  0  0  0
    3.9974   44.3313   53.7315 N   0  0  0  0  0  0  0  0  0  0  0  0
    3.4918   43.5031   52.7355 C   0  0  0  0  0  0  0  0  0  0  0  0
    4.3448   42.6032   52.1550 N   0  0  0  0  0  0  0  0  0  0  0  0
    5.6611   42.8575   51.7051 C   0  0  0  0  0  0  0  0  0  0  0  0
    6.5367   41.7706   51.5793 C   0  0  0  0  0  0  0  0  0  0  0  0
    7.8505   41.9590   51.1526 C   0  0  0  0  0  0  0  0  0  0  0  0
    8.3008   43.2415   50.8480 C   0  0  0  0  0  0  0  0  0  0  0  0
    7.4474   44.3399   50.9591 C   0  0  0  0  0  0  0  0  0  0  0  0
    8.0185   45.5338   50.6181 O   0  0  0  0  0  0  0  0  0  0  0  0
    8.0158   46.5931   51.5657 C   0  0  0  0  0  0  0  0  0  0  0  0
    8.6253   46.0923   52.8735 C   0  0  0  0  0  0  0  0  0  0  0  0
    9.0392   47.3631   53.6030 C   0  0  0  0  0  0  0  0  0  0  0  0
    9.2928   48.4054   52.5143 C   0  0  0  0  0  0  0  0  0  0  0  0
    8.9788   47.7163   51.1916 C   0  0  0  0  0  0  0  0  0  0  0  0
    6.1303   44.1420   51.3824 C   0  0  0  0  0  0  0  0  0  0  0  0
    2.2352   43.5230   52.3661 N   0  0  0  0  0  0  0  0  0  0  0  0
    1.4862   44.4460   53.0194 C   0  0  0  0  0  0  0  0  0  0  0  0
   -0.1779   43.3764   51.2655 H   0  0  0  0  0  0  0  0  0  0  0  0
   -1.5026   43.5006   52.4723 H   0  0  0  0  0  0  0  0  0  0  0  0
   -1.2371   44.8270   51.2904 H   0  0  0  0  0  0  0  0  0  0  0  0
    0.7631   46.8448   55.1201 H   0  0  0  0  0  0  0  0  0  0  0  0
    4.9609   44.2248   54.0079 H   0  0  0  0  0  0  0  0  0  0  0  0
    3.8573   41.9869   51.5110 H   0  0  0  0  0  0  0  0  0  0  0  0
    6.1833   40.7571   51.8199 H   0  0  0  0  0  0  0  0  0  0  0  0
    8.5288   41.0983   51.0568 H   0  0  0  0  0  0  0  0  0  0  0  0
    9.3392   43.3899   50.5167 H   0  0  0  0  0  0  0  0  0  0  0  0
    6.9715   46.9343   51.6219 H   0  0  0  0  0  0  0  0  0  0  0  0
    7.8835   45.5300   53.4596 H   0  0  0  0  0  0  0  0  0  0  0  0
    9.4695   45.4064   52.7097 H   0  0  0  0  0  0  0  0  0  0  0  0
    8.2349   47.6985   54.2742 H   0  0  0  0  0  0  0  0  0  0  0  0
    9.9328   47.2006   54.2234 H   0  0  0  0  0  0  0  0  0  0  0  0
    8.6352   49.2755   52.6575 H   0  0  0  0  0  0  0  0  0  0  0  0
   10.3295   48.7722   52.5413 H   0  0  0  0  0  0  0  0  0  0  0  0
    8.5040   48.4183   50.4904 H   0  0  0  0  0  0  0  0  0  0  0  0
    9.8833   47.3421   50.6896 H   0  0  0  0  0  0  0  0  0  0  0  0
    5.4516   45.0037   51.4641 H   0  0  0  0  0  0  0  0  0  0  0  0
  1  2  1  0
  2  3  1  0
  3  4  2  0
  4  5  1  0
  5  6  1  0
  6  7  2  0
  6  8  1  0
  8  9  1  0
  9 10  1  0
 10 11  1  0
 11 12  2  0
 12 13  1  0
 13 14  2  0
 14 15  1  0
 15 16  1  0
 16 17  1  0
 17 18  1  0
 18 19  1  0
 19 20  1  0
 20 21  1  0
 15 22  2  0
  9 23  2  0
 23 24  1  0
 24  2  1  0
 24  5  2  0
 22 11  1  0
 21 17  1  0
  1 25  1  0
  1 26  1  0
  1 27  1  0
  4 28  1  0
  8 29  1  0
 10 30  1  0
 12 31  1  0
 13 32  1  0
 14 33  1  0
 17 34  1  0
 18 35  1  0
 18 36  1  0
 19 37  1  0
 19 38  1  0
 20 39  1  0
 20 40  1  0
 21 41  1  0
 21 42  1  0
 22 43  1  0
M  END
>  <meeko>  (5) 
{"is_sidechain": false}

>  <CID>  (5) 
Z1576583090

>  <pose_index>  (5) 
7

>  <docking_score>  (5) 
-8.718

>  <rmsd_to_best_selected>  (5) 
0.8780993868238093

>  <MWT>  (5) 
325.3719999999997

>  <TPSA>  (5) 
84.83

>  <logP>  (5) 
2.7216000000000005

>  <HBD>  (5) 
2

>  <HBA>  (5) 
6

>  <SMILES>  (5) 
[H]c1c([H])c(OC2([H])C([H])([H])C([H])([H])C([H])([H])C2([H])[H])c([H])c(N([H])c2nc3c(c([H])nn3C([H])([H])[H])c(=O)n2[H])c1[H]

$$$$
Z1576583090_pose10
     RDKit          3D

 43 46  0  0  0  0  0  0  0  0999 V2000
   -1.2933   43.5159   51.6508 C   0  0  0  0  0  0  0  0  0  0  0  0
   -0.5644   44.2113   52.6825 N   0  0  0  0  0  0  0  0  0  0  0  0
   -1.2296   45.0513   53.5157 N   0  0  0  0  0  0  0  0  0  0  0  0
   -0.2715   45.5137   54.3319 C   0  0  0  0  0  0  0  0  0  0  0  0
    0.9818   44.9789   54.0165 C   0  0  0  0  0  0  0  0  0  0  0  0
    2.3066   45.1152   54.5353 C   0  0  0  0  0  0  0  0  0  0  0  0
    2.6127   45.8267   55.4846 O   0  0  0  0  0  0  0  0  0  0  0  0
    3.2210   44.3511   53.8393 N   0  0  0  0  0  0  0  0  0  0  0  0
    2.9174   43.5380   52.7530 C   0  0  0  0  0  0  0  0  0  0  0  0
    3.9359   42.8275   52.1773 N   0  0  0  0  0  0  0  0  0  0  0  0
    5.2222   43.3139   51.8479 C   0  0  0  0  0  0  0  0  0  0  0  0
    5.8701   42.7596   50.7348 C   0  0  0  0  0  0  0  0  0  0  0  0
    7.1443   43.1874   50.3661 C   0  0  0  0  0  0  0  0  0  0  0  0
    7.7826   44.1782   51.1088 C   0  0  0  0  0  0  0  0  0  0  0  0
    7.1560   44.7509   52.2174 C   0  0  0  0  0  0  0  0  0  0  0  0
    7.8926   45.7158   52.8452 O   0  0  0  0  0  0  0  0  0  0  0  0
    9.1099   46.1476   52.2521 C   0  0  0  0  0  0  0  0  0  0  0  0
    9.0026   47.6356   51.9266 C   0  0  0  0  0  0  0  0  0  0  0  0
   10.4491   48.0938   51.7949 C   0  0  0  0  0  0  0  0  0  0  0  0
   11.2694   47.1380   52.6609 C   0  0  0  0  0  0  0  0  0  0  0  0
   10.2775   46.1334   53.2345 C   0  0  0  0  0  0  0  0  0  0  0  0
    5.8764   44.3188   52.5774 C   0  0  0  0  0  0  0  0  0  0  0  0
    1.6990   43.3974   52.2921 N   0  0  0  0  0  0  0  0  0  0  0  0
    0.7736   44.1403   52.9488 C   0  0  0  0  0  0  0  0  0  0  0  0
   -2.0814   42.9009   52.1097 H   0  0  0  0  0  0  0  0  0  0  0  0
   -1.7499   44.2474   50.9679 H   0  0  0  0  0  0  0  0  0  0  0  0
   -0.6045   42.8689   51.0878 H   0  0  0  0  0  0  0  0  0  0  0  0
   -0.4495   46.2270   55.1501 H   0  0  0  0  0  0  0  0  0  0  0  0
    4.1697   44.3701   54.1798 H   0  0  0  0  0  0  0  0  0  0  0  0
    3.5927   42.1978   51.4569 H   0  0  0  0  0  0  0  0  0  0  0  0
    5.3672   41.9783   50.1460 H   0  0  0  0  0  0  0  0  0  0  0  0
    7.6439   42.7445   49.4920 H   0  0  0  0  0  0  0  0  0  0  0  0
    8.7898   44.5125   50.8192 H   0  0  0  0  0  0  0  0  0  0  0  0
    9.2733   45.4786   51.3944 H   0  0  0  0  0  0  0  0  0  0  0  0
    8.4568   47.7905   50.9842 H   0  0  0  0  0  0  0  0  0  0  0  0
    8.4510   48.1966   52.6954 H   0  0  0  0  0  0  0  0  0  0  0  0
   10.7752   48.0358   50.7459 H   0  0  0  0  0  0  0  0  0  0  0  0
   10.5736   49.1386   52.1157 H   0  0  0  0  0  0  0  0  0  0  0  0
   12.0253   46.6225   52.0502 H   0  0  0  0  0  0  0  0  0  0  0  0
   11.8044   47.6753   53.4577 H   0  0  0  0  0  0  0  0  0  0  0  0
   10.7271   45.1310   53.2899 H   0  0  0  0  0  0  0  0  0  0  0  0
    9.9667   46.3895   54.2581 H   0  0  0  0  0  0  0  0  0  0  0  0
    5.3749   44.7729   53.4448 H   0  0  0  0  0  0  0  0  0  0  0  0
  1  2  1  0
  2  3  1  0
  3  4  2  0
  4  5  1  0
  5  6  1  0
  6  7  2  0
  6  8  1  0
  8  9  1  0
  9 10  1  0
 10 11  1  0
 11 12  2  0
 12 13  1  0
 13 14  2  0
 14 15  1  0
 15 16  1  0
 16 17  1  0
 17 18  1  0
 18 19  1  0
 19 20  1  0
 20 21  1  0
 15 22  2  0
  9 23  2  0
 23 24  1  0
 24  2  1  0
 24  5  2  0
 22 11  1  0
 21 17  1  0
  1 25  1  0
  1 26  1  0
  1 27  1  0
  4 28  1  0
  8 29  1  0
 10 30  1  0
 12 31  1  0
 13 32  1  0
 14 33  1  0
 17 34  1  0
 18 35  1  0
 18 36  1  0
 19 37  1  0
 19 38  1  0
 20 39  1  0
 20 40  1  0
 21 41  1  0
 21 42  1  0
 22 43  1  0
M  END
>  <meeko>  (6) 
{"is_sidechain": false}

>  <CID>  (6) 
Z1576583090

>  <pose_index>  (6) 
10

>  <docking_score>  (6) 
-8.576

>  <rmsd_to_best_selected>  (6) 
1.4452569423634594

>  <MWT>  (6) 
325.3719999999997

>  <TPSA>  (6) 
84.83

>  <logP>  (6) 
2.7216000000000005

>  <HBD>  (6) 
2

>  <HBA>  (6) 
6

>  <SMILES>  (6) 
[H]c1c([H])c(OC2([H])C([H])([H])C([H])([H])C([H])([H])C2([H])[H])c([H])c(N([H])c2nc3c(c([H])nn3C([H])([H])[H])c(=O)n2[H])c1[H]

$$$$
