Z1587211729_pose1
     RDKit          3D

 34 36  0  0  0  0  0  0  0  0999 V2000
    5.2020   47.5700   54.5390 O   0  0  0  0  0  0  0  0  0  0  0  0
    5.7090   46.7470   53.4570 S   0  0  0  0  0  0  0  0  0  0  0  0
    5.2400   46.9700   52.0990 O   0  0  0  0  0  0  0  0  0  0  0  0
    5.3910   45.0450   53.8450 C   0  0  0  0  0  0  0  0  0  0  0  0
    3.9690   44.6170   53.5340 C   0  0  0  0  0  0  0  0  0  0  0  0
    3.7490   44.6180   52.0890 N   0  0  0  0  0  0  0  0  0  0  0  0
    4.2800   43.5200   51.4100 C   0  0  0  0  0  0  0  0  0  0  0  0
    3.7070   42.3010   51.4450 N   0  0  0  0  0  0  0  0  0  0  0  0
    4.2770   41.2960   50.7450 C   0  0  0  0  0  0  0  0  0  0  0  0
    5.3800   41.3340   49.9880 N   0  0  0  0  0  0  0  0  0  0  0  0
    5.9550   42.5490   49.9840 C   0  0  0  0  0  0  0  0  0  0  0  0
    7.1090   42.8860   49.3270 N   0  0  0  0  0  0  0  0  0  0  0  0
    7.3170   44.1480   49.6320 C   0  0  0  0  0  0  0  0  0  0  0  0
    6.3360   44.6410   50.4470 N   0  0  0  0  0  0  0  0  0  0  0  0
    5.4400   43.6320   50.6680 C   0  0  0  0  0  0  0  0  0  0  0  0
    7.4790   46.9170   53.4130 C   0  0  0  0  0  0  0  0  0  0  0  0
    8.1710   47.1840   54.5970 C   0  0  0  0  0  0  0  0  0  0  0  0
    9.5610   47.3020   54.5690 C   0  0  0  0  0  0  0  0  0  0  0  0
   10.2520   47.1430   53.3660 C   0  0  0  0  0  0  0  0  0  0  0  0
    9.5570   46.8600   52.1890 C   0  0  0  0  0  0  0  0  0  0  0  0
    8.1670   46.7370   52.2090 C   0  0  0  0  0  0  0  0  0  0  0  0
    6.0806   44.4183   53.2604 H   0  0  0  0  0  0  0  0  0  0  0  0
    5.5397   44.9232   54.9281 H   0  0  0  0  0  0  0  0  0  0  0  0
    3.7998   43.6037   53.9271 H   0  0  0  0  0  0  0  0  0  0  0  0
    3.2693   45.3229   54.0053 H   0  0  0  0  0  0  0  0  0  0  0  0
    2.7720   44.7210   51.8250 H   0  0  0  0  0  0  0  0  0  0  0  0
    3.7697   40.3218   50.8049 H   0  0  0  0  0  0  0  0  0  0  0  0
    8.1756   44.7356   49.2750 H   0  0  0  0  0  0  0  0  0  0  0  0
    6.3020   45.5620   50.8620 H   0  0  0  0  0  0  0  0  0  0  0  0
    7.6240   47.3003   55.5443 H   0  0  0  0  0  0  0  0  0  0  0  0
   10.1129   47.5204   55.4951 H   0  0  0  0  0  0  0  0  0  0  0  0
   11.3474   47.2411   53.3458 H   0  0  0  0  0  0  0  0  0  0  0  0
   10.1058   46.7337   51.2441 H   0  0  0  0  0  0  0  0  0  0  0  0
    7.6175   46.5006   51.2859 H   0  0  0  0  0  0  0  0  0  0  0  0
  1  2  2  0
  2  3  2  0
  2  4  1  0
  4  5  1  0
  5  6  1  0
  6  7  1  0
  7  8  2  0
  8  9  1  0
  9 10  2  0
 10 11  1  0
 11 12  1  0
 12 13  2  0
 13 14  1  0
 14 15  1  0
  2 16  1  0
 16 17  2  0
 17 18  1  0
 18 19  2  0
 19 20  1  0
 20 21  2  0
 15  7  1  0
 21 16  1  0
 15 11  2  0
  4 22  1  0
  4 23  1  0
  5 24  1  0
  5 25  1  0
  6 26  1  0
  9 27  1  0
 13 28  1  0
 14 29  1  0
 17 30  1  0
 18 31  1  0
 19 32  1  0
 20 33  1  0
 21 34  1  0
M  END
>  <meeko>  (1) 
{"is_sidechain": false}

>  <CID>  (1) 
Z1587211729

>  <pose_index>  (1) 
1

>  <docking_score>  (1) 
-8.038

>  <rmsd_to_best_selected>  (1) 
0.0

>  <MWT>  (1) 
303.3469999999998

>  <TPSA>  (1) 
100.63

>  <logP>  (1) 
1.238699999999999

>  <HBD>  (1) 
2

>  <HBA>  (1) 
6

>  <SMILES>  (1) 
[H]c1nc(N([H])C([H])([H])C([H])([H])S(=O)(=O)c2c([H])c([H])c([H])c([H])c2[H])c2c(n1)nc([H])n2[H]

$$$$
Z1587211729_pose2
     RDKit          3D

 34 36  0  0  0  0  0  0  0  0999 V2000
    5.0802   47.1239   52.9801 O   0  0  0  0  0  0  0  0  0  0  0  0
    6.2182   46.2740   52.6861 S   0  0  0  0  0  0  0  0  0  0  0  0
    6.4685   45.8508   51.3186 O   0  0  0  0  0  0  0  0  0  0  0  0
    6.0931   44.8036   53.6723 C   0  0  0  0  0  0  0  0  0  0  0  0
    4.6785   44.2652   53.7638 C   0  0  0  0  0  0  0  0  0  0  0  0
    4.5969   42.9581   53.1133 N   0  0  0  0  0  0  0  0  0  0  0  0
    4.2329   42.9902   51.7654 C   0  0  0  0  0  0  0  0  0  0  0  0
    2.9560   43.1442   51.3638 N   0  0  0  0  0  0  0  0  0  0  0  0
    2.6931   43.1807   50.0393 C   0  0  0  0  0  0  0  0  0  0  0  0
    3.5535   43.0798   49.0195 N   0  0  0  0  0  0  0  0  0  0  0  0
    4.8193   42.9013   49.4358 C   0  0  0  0  0  0  0  0  0  0  0  0
    5.9110   42.7349   48.6261 N   0  0  0  0  0  0  0  0  0  0  0  0
    6.9203   42.5533   49.4494 C   0  0  0  0  0  0  0  0  0  0  0  0
    6.5234   42.6106   50.7568 N   0  0  0  0  0  0  0  0  0  0  0  0
    5.1781   42.8532   50.7679 C   0  0  0  0  0  0  0  0  0  0  0  0
    7.6899   47.1071   53.2345 C   0  0  0  0  0  0  0  0  0  0  0  0
    8.6284   47.5326   52.2898 C   0  0  0  0  0  0  0  0  0  0  0  0
    9.7777   48.2016   52.7140 C   0  0  0  0  0  0  0  0  0  0  0  0
    9.9789   48.4511   54.0733 C   0  0  0  0  0  0  0  0  0  0  0  0
    9.0304   48.0368   55.0115 C   0  0  0  0  0  0  0  0  0  0  0  0
    7.8777   47.3713   54.5935 C   0  0  0  0  0  0  0  0  0  0  0  0
    6.7343   44.0285   53.2273 H   0  0  0  0  0  0  0  0  0  0  0  0
    6.4101   45.0659   54.6925 H   0  0  0  0  0  0  0  0  0  0  0  0
    4.3953   44.1636   54.8219 H   0  0  0  0  0  0  0  0  0  0  0  0
    3.9938   44.9626   53.2591 H   0  0  0  0  0  0  0  0  0  0  0  0
    5.4433   42.4017   53.2063 H   0  0  0  0  0  0  0  0  0  0  0  0
    1.6360   43.3098   49.7637 H   0  0  0  0  0  0  0  0  0  0  0  0
    7.9568   42.3768   49.1260 H   0  0  0  0  0  0  0  0  0  0  0  0
    7.1002   42.4465   51.5704 H   0  0  0  0  0  0  0  0  0  0  0  0
    8.4622   47.3416   51.2194 H   0  0  0  0  0  0  0  0  0  0  0  0
   10.5250   48.5321   51.9777 H   0  0  0  0  0  0  0  0  0  0  0  0
   10.8868   48.9755   54.4061 H   0  0  0  0  0  0  0  0  0  0  0  0
    9.1926   48.2355   56.0812 H   0  0  0  0  0  0  0  0  0  0  0  0
    7.1221   47.0569   55.3286 H   0  0  0  0  0  0  0  0  0  0  0  0
  1  2  2  0
  2  3  2  0
  2  4  1  0
  4  5  1  0
  5  6  1  0
  6  7  1  0
  7  8  2  0
  8  9  1  0
  9 10  2  0
 10 11  1  0
 11 12  1  0
 12 13  2  0
 13 14  1  0
 14 15  1  0
  2 16  1  0
 16 17  2  0
 17 18  1  0
 18 19  2  0
 19 20  1  0
 20 21  2  0
 15  7  1  0
 21 16  1  0
 15 11  2  0
  4 22  1  0
  4 23  1  0
  5 24  1  0
  5 25  1  0
  6 26  1  0
  9 27  1  0
 13 28  1  0
 14 29  1  0
 17 30  1  0
 18 31  1  0
 19 32  1  0
 20 33  1  0
 21 34  1  0
M  END
>  <meeko>  (2) 
{"is_sidechain": false}

>  <CID>  (2) 
Z1587211729

>  <pose_index>  (2) 
2

>  <docking_score>  (2) 
-7.997

>  <rmsd_to_best_selected>  (2) 
1.7792653135418188

>  <MWT>  (2) 
303.3469999999998

>  <TPSA>  (2) 
100.63

>  <logP>  (2) 
1.238699999999999

>  <HBD>  (2) 
2

>  <HBA>  (2) 
6

>  <SMILES>  (2) 
[H]c1nc(N([H])C([H])([H])C([H])([H])S(=O)(=O)c2c([H])c([H])c([H])c([H])c2[H])c2c(n1)nc([H])n2[H]

$$$$
Z1587211729_pose4
     RDKit          3D

 34 36  0  0  0  0  0  0  0  0999 V2000
    6.6553   45.8423   56.2742 O   0  0  0  0  0  0  0  0  0  0  0  0
    6.1090   45.7900   54.9309 S   0  0  0  0  0  0  0  0  0  0  0  0
    4.8027   46.3650   54.6601 O   0  0  0  0  0  0  0  0  0  0  0  0
    6.0510   44.0943   54.4110 C   0  0  0  0  0  0  0  0  0  0  0  0
    4.6799   43.6669   53.9233 C   0  0  0  0  0  0  0  0  0  0  0  0
    4.8124   42.7832   52.7658 N   0  0  0  0  0  0  0  0  0  0  0  0
    4.6500   43.4032   51.5259 C   0  0  0  0  0  0  0  0  0  0  0  0
    3.4503   43.8277   51.0805 N   0  0  0  0  0  0  0  0  0  0  0  0
    3.3834   44.4324   49.8745 C   0  0  0  0  0  0  0  0  0  0  0  0
    4.3792   44.6842   49.0166 N   0  0  0  0  0  0  0  0  0  0  0  0
    5.5643   44.2340   49.4629 C   0  0  0  0  0  0  0  0  0  0  0  0
    6.7553   44.3186   48.7927 N   0  0  0  0  0  0  0  0  0  0  0  0
    7.6278   43.7196   49.5746 C   0  0  0  0  0  0  0  0  0  0  0  0
    7.0478   43.2669   50.7270 N   0  0  0  0  0  0  0  0  0  0  0  0
    5.7236   43.6059   50.6818 C   0  0  0  0  0  0  0  0  0  0  0  0
    7.2531   46.5994   53.8346 C   0  0  0  0  0  0  0  0  0  0  0  0
    8.2806   47.3809   54.3714 C   0  0  0  0  0  0  0  0  0  0  0  0
    9.1890   48.0035   53.5150 C   0  0  0  0  0  0  0  0  0  0  0  0
    9.0761   47.8363   52.1333 C   0  0  0  0  0  0  0  0  0  0  0  0
    8.0574   47.0413   51.6037 C   0  0  0  0  0  0  0  0  0  0  0  0
    7.1472   46.4126   52.4534 C   0  0  0  0  0  0  0  0  0  0  0  0
    6.7727   43.9543   53.5927 H   0  0  0  0  0  0  0  0  0  0  0  0
    6.2950   43.4747   55.2866 H   0  0  0  0  0  0  0  0  0  0  0  0
    4.1564   43.1337   54.7305 H   0  0  0  0  0  0  0  0  0  0  0  0
    4.1067   44.5594   53.6318 H   0  0  0  0  0  0  0  0  0  0  0  0
    5.6835   42.2573   52.7522 H   0  0  0  0  0  0  0  0  0  0  0  0
    2.3824   44.7598   49.5569 H   0  0  0  0  0  0  0  0  0  0  0  0
    8.6936   43.5978   49.3309 H   0  0  0  0  0  0  0  0  0  0  0  0
    7.4949   42.7282   51.4556 H   0  0  0  0  0  0  0  0  0  0  0  0
    8.3720   47.5039   55.4607 H   0  0  0  0  0  0  0  0  0  0  0  0
    9.9953   48.6269   53.9288 H   0  0  0  0  0  0  0  0  0  0  0  0
    9.7913   48.3320   51.4603 H   0  0  0  0  0  0  0  0  0  0  0  0
    7.9727   46.9106   50.5148 H   0  0  0  0  0  0  0  0  0  0  0  0
    6.3522   45.7748   52.0397 H   0  0  0  0  0  0  0  0  0  0  0  0
  1  2  2  0
  2  3  2  0
  2  4  1  0
  4  5  1  0
  5  6  1  0
  6  7  1  0
  7  8  2  0
  8  9  1  0
  9 10  2  0
 10 11  1  0
 11 12  1  0
 12 13  2  0
 13 14  1  0
 14 15  1  0
  2 16  1  0
 16 17  2  0
 17 18  1  0
 18 19  2  0
 19 20  1  0
 20 21  2  0
 15  7  1  0
 21 16  1  0
 15 11  2  0
  4 22  1  0
  4 23  1  0
  5 24  1  0
  5 25  1  0
  6 26  1  0
  9 27  1  0
 13 28  1  0
 14 29  1  0
 17 30  1  0
 18 31  1  0
 19 32  1  0
 20 33  1  0
 21 34  1  0
M  END
>  <meeko>  (3) 
{"is_sidechain": false}

>  <CID>  (3) 
Z1587211729

>  <pose_index>  (3) 
4

>  <docking_score>  (3) 
-7.851

>  <rmsd_to_best_selected>  (3) 
1.8380553762856822

>  <MWT>  (3) 
303.3469999999998

>  <TPSA>  (3) 
100.63

>  <logP>  (3) 
1.238699999999999

>  <HBD>  (3) 
2

>  <HBA>  (3) 
6

>  <SMILES>  (3) 
[H]c1nc(N([H])C([H])([H])C([H])([H])S(=O)(=O)c2c([H])c([H])c([H])c([H])c2[H])c2c(n1)nc([H])n2[H]

$$$$
Z1587211729_pose5
     RDKit          3D

 34 36  0  0  0  0  0  0  0  0999 V2000
    7.3083   43.4226   53.4592 O   0  0  0  0  0  0  0  0  0  0  0  0
    7.2591   44.4744   54.4583 S   0  0  0  0  0  0  0  0  0  0  0  0
    7.8461   44.2540   55.7694 O   0  0  0  0  0  0  0  0  0  0  0  0
    5.5627   44.9282   54.7150 C   0  0  0  0  0  0  0  0  0  0  0  0
    4.7459   44.9345   53.4366 C   0  0  0  0  0  0  0  0  0  0  0  0
    4.5634   43.5676   52.9521 N   0  0  0  0  0  0  0  0  0  0  0  0
    4.2554   43.4574   51.5944 C   0  0  0  0  0  0  0  0  0  0  0  0
    3.0421   43.0651   51.1579 N   0  0  0  0  0  0  0  0  0  0  0  0
    2.8226   43.0008   49.8258 C   0  0  0  0  0  0  0  0  0  0  0  0
    3.6721   43.2810   48.8307 N   0  0  0  0  0  0  0  0  0  0  0  0
    4.8842   43.6455   49.2819 C   0  0  0  0  0  0  0  0  0  0  0  0
    5.9659   43.9611   48.5034 N   0  0  0  0  0  0  0  0  0  0  0  0
    6.9366   44.2115   49.3548 C   0  0  0  0  0  0  0  0  0  0  0  0
    6.5185   44.0838   50.6506 N   0  0  0  0  0  0  0  0  0  0  0  0
    5.1952   43.7396   50.6238 C   0  0  0  0  0  0  0  0  0  0  0  0
    8.0551   45.9161   53.7854 C   0  0  0  0  0  0  0  0  0  0  0  0
    8.6173   45.8543   52.5073 C   0  0  0  0  0  0  0  0  0  0  0  0
    9.2283   46.9881   51.9700 C   0  0  0  0  0  0  0  0  0  0  0  0
    9.2665   48.1757   52.7029 C   0  0  0  0  0  0  0  0  0  0  0  0
    8.6895   48.2352   53.9739 C   0  0  0  0  0  0  0  0  0  0  0  0
    8.0729   47.1073   54.5154 C   0  0  0  0  0  0  0  0  0  0  0  0
    5.1108   44.2101   55.4151 H   0  0  0  0  0  0  0  0  0  0  0  0
    5.5552   45.9537   55.1129 H   0  0  0  0  0  0  0  0  0  0  0  0
    3.7622   45.3848   53.6352 H   0  0  0  0  0  0  0  0  0  0  0  0
    5.2773   45.5202   52.6720 H   0  0  0  0  0  0  0  0  0  0  0  0
    5.3489   42.9545   53.1563 H   0  0  0  0  0  0  0  0  0  0  0  0
    1.8167   42.6766   49.5207 H   0  0  0  0  0  0  0  0  0  0  0  0
    7.9594   44.4896   49.0607 H   0  0  0  0  0  0  0  0  0  0  0  0
    7.0896   44.1684   51.4794 H   0  0  0  0  0  0  0  0  0  0  0  0
    8.5783   44.9192   51.9293 H   0  0  0  0  0  0  0  0  0  0  0  0
    9.6804   46.9460   50.9681 H   0  0  0  0  0  0  0  0  0  0  0  0
    9.7520   49.0668   52.2785 H   0  0  0  0  0  0  0  0  0  0  0  0
    8.7216   49.1728   54.5484 H   0  0  0  0  0  0  0  0  0  0  0  0
    7.6042   47.1552   55.5094 H   0  0  0  0  0  0  0  0  0  0  0  0
  1  2  2  0
  2  3  2  0
  2  4  1  0
  4  5  1  0
  5  6  1  0
  6  7  1  0
  7  8  2  0
  8  9  1  0
  9 10  2  0
 10 11  1  0
 11 12  1  0
 12 13  2  0
 13 14  1  0
 14 15  1  0
  2 16  1  0
 16 17  2  0
 17 18  1  0
 18 19  2  0
 19 20  1  0
 20 21  2  0
 15  7  1  0
 21 16  1  0
 15 11  2  0
  4 22  1  0
  4 23  1  0
  5 24  1  0
  5 25  1  0
  6 26  1  0
  9 27  1  0
 13 28  1  0
 14 29  1  0
 17 30  1  0
 18 31  1  0
 19 32  1  0
 20 33  1  0
 21 34  1  0
M  END
>  <meeko>  (4) 
{"is_sidechain": false}

>  <CID>  (4) 
Z1587211729

>  <pose_index>  (4) 
5

>  <docking_score>  (4) 
-7.826

>  <rmsd_to_best_selected>  (4) 
1.8878602447053328

>  <MWT>  (4) 
303.3469999999998

>  <TPSA>  (4) 
100.63

>  <logP>  (4) 
1.238699999999999

>  <HBD>  (4) 
2

>  <HBA>  (4) 
6

>  <SMILES>  (4) 
[H]c1nc(N([H])C([H])([H])C([H])([H])S(=O)(=O)c2c([H])c([H])c([H])c([H])c2[H])c2c(n1)nc([H])n2[H]

$$$$
Z1587211729_pose7
     RDKit          3D

 34 36  0  0  0  0  0  0  0  0999 V2000
    6.9557   44.1003   53.6592 O   0  0  0  0  0  0  0  0  0  0  0  0
    6.5711   45.4738   53.9217 S   0  0  0  0  0  0  0  0  0  0  0  0
    5.8426   45.8007   55.1368 O   0  0  0  0  0  0  0  0  0  0  0  0
    5.5997   46.0596   52.5575 C   0  0  0  0  0  0  0  0  0  0  0  0
    4.1527   45.6071   52.6171 C   0  0  0  0  0  0  0  0  0  0  0  0
    4.0867   44.1511   52.7282 N   0  0  0  0  0  0  0  0  0  0  0  0
    3.9076   43.4732   51.5203 C   0  0  0  0  0  0  0  0  0  0  0  0
    2.6873   43.1963   51.0203 N   0  0  0  0  0  0  0  0  0  0  0  0
    2.6036   42.5505   49.8367 C   0  0  0  0  0  0  0  0  0  0  0  0
    3.5997   42.1250   49.0513 N   0  0  0  0  0  0  0  0  0  0  0  0
    4.8098   42.3864   49.5751 C   0  0  0  0  0  0  0  0  0  0  0  0
    6.0134   42.0435   49.0183 N   0  0  0  0  0  0  0  0  0  0  0  0
    6.9156   42.4531   49.8820 C   0  0  0  0  0  0  0  0  0  0  0  0
    6.3420   43.0574   50.9659 N   0  0  0  0  0  0  0  0  0  0  0  0
    4.9879   43.0412   50.7765 C   0  0  0  0  0  0  0  0  0  0  0  0
    8.0453   46.4691   53.9362 C   0  0  0  0  0  0  0  0  0  0  0  0
    8.7089   46.6940   55.1451 C   0  0  0  0  0  0  0  0  0  0  0  0
    9.8751   47.4605   55.1572 C   0  0  0  0  0  0  0  0  0  0  0  0
   10.3762   47.9898   53.9668 C   0  0  0  0  0  0  0  0  0  0  0  0
    9.7168   47.7492   52.7593 C   0  0  0  0  0  0  0  0  0  0  0  0
    8.5536   46.9800   52.7382 C   0  0  0  0  0  0  0  0  0  0  0  0
    5.6225   47.1593   52.5586 H   0  0  0  0  0  0  0  0  0  0  0  0
    6.0366   45.6385   51.6400 H   0  0  0  0  0  0  0  0  0  0  0  0
    3.6651   46.0614   53.4922 H   0  0  0  0  0  0  0  0  0  0  0  0
    3.6385   45.9219   51.6971 H   0  0  0  0  0  0  0  0  0  0  0  0
    4.8819   43.7420   53.2129 H   0  0  0  0  0  0  0  0  0  0  0  0
    1.5858   42.3487   49.4718 H   0  0  0  0  0  0  0  0  0  0  0  0
    8.0000   42.3253   49.7488 H   0  0  0  0  0  0  0  0  0  0  0  0
    6.8188   43.4029   51.7878 H   0  0  0  0  0  0  0  0  0  0  0  0
    8.3150   46.2700   56.0805 H   0  0  0  0  0  0  0  0  0  0  0  0
   10.3998   47.6478   56.1057 H   0  0  0  0  0  0  0  0  0  0  0  0
   11.2928   48.5978   53.9797 H   0  0  0  0  0  0  0  0  0  0  0  0
   10.1157   48.1672   51.8233 H   0  0  0  0  0  0  0  0  0  0  0  0
    8.0403   46.7770   51.7867 H   0  0  0  0  0  0  0  0  0  0  0  0
  1  2  2  0
  2  3  2  0
  2  4  1  0
  4  5  1  0
  5  6  1  0
  6  7  1  0
  7  8  2  0
  8  9  1  0
  9 10  2  0
 10 11  1  0
 11 12  1  0
 12 13  2  0
 13 14  1  0
 14 15  1  0
  2 16  1  0
 16 17  2  0
 17 18  1  0
 18 19  2  0
 19 20  1  0
 20 21  2  0
 15  7  1  0
 21 16  1  0
 15 11  2  0
  4 22  1  0
  4 23  1  0
  5 24  1  0
  5 25  1  0
  6 26  1  0
  9 27  1  0
 13 28  1  0
 14 29  1  0
 17 30  1  0
 18 31  1  0
 19 32  1  0
 20 33  1  0
 21 34  1  0
M  END
>  <meeko>  (5) 
{"is_sidechain": false}

>  <CID>  (5) 
Z1587211729

>  <pose_index>  (5) 
7

>  <docking_score>  (5) 
-7.714

>  <rmsd_to_best_selected>  (5) 
1.7660632180335296

>  <MWT>  (5) 
303.3469999999998

>  <TPSA>  (5) 
100.63

>  <logP>  (5) 
1.238699999999999

>  <HBD>  (5) 
2

>  <HBA>  (5) 
6

>  <SMILES>  (5) 
[H]c1nc(N([H])C([H])([H])C([H])([H])S(=O)(=O)c2c([H])c([H])c([H])c([H])c2[H])c2c(n1)nc([H])n2[H]

$$$$
