Z1657740785_pose1
     RDKit          3D

 44 47  0  0  0  0  0  0  0  0999 V2000
    2.8710   43.7200   53.0760 O   0  0  0  0  0  0  0  0  0  0  0  0
    2.6200   44.7570   53.6770 C   0  0  0  0  0  0  0  0  0  0  0  0
    3.3180   45.9380   53.6270 N   0  0  0  0  0  0  0  0  0  0  0  0
    4.4670   46.1420   52.9200 C   0  0  0  0  0  0  0  0  0  0  0  0
    4.7040   45.6790   51.6610 N   0  0  0  0  0  0  0  0  0  0  0  0
    5.9160   46.1050   51.3970 C   0  0  0  0  0  0  0  0  0  0  0  0
    6.3880   46.7980   52.4660 N   0  0  0  0  0  0  0  0  0  0  0  0
    7.6880   47.4410   52.5980 C   0  0  0  0  0  0  0  0  0  0  0  0
    8.3810   47.0220   53.9080 C   0  0  0  0  0  0  0  0  0  0  0  0
    9.8820   47.2700   53.8440 C   0  0  0  0  0  0  0  0  0  0  0  0
   10.5470   46.4560   52.7320 C   0  0  0  0  0  0  0  0  0  0  0  0
    9.6190   46.1470   51.5550 C   0  0  0  0  0  0  0  0  0  0  0  0
    8.5720   47.2390   51.3520 C   0  0  0  0  0  0  0  0  0  0  0  0
    5.4760   46.8350   53.4570 N   0  0  0  0  0  0  0  0  0  0  0  0
    1.4020   44.7840   54.5380 C   0  0  0  0  0  0  0  0  0  0  0  0
    0.3190   43.9710   54.1830 C   0  0  0  0  0  0  0  0  0  0  0  0
   -0.8390   43.9680   54.9590 C   0  0  0  0  0  0  0  0  0  0  0  0
   -0.9210   44.7700   56.1000 C   0  0  0  0  0  0  0  0  0  0  0  0
    0.1600   45.5760   56.4860 C   0  0  0  0  0  0  0  0  0  0  0  0
    0.1240   46.4250   57.6800 C   0  0  0  0  0  0  0  0  0  0  0  0
   -0.9440   46.9880   58.2130 N   0  0  0  0  0  0  0  0  0  0  0  0
   -0.4530   47.6680   59.2900 C   0  0  0  0  0  0  0  0  0  0  0  0
    0.8640   47.5700   59.4670 N   0  0  0  0  0  0  0  0  0  0  0  0
    1.2100   46.7860   58.4340 N   0  0  0  0  0  0  0  0  0  0  0  0
    1.3220   45.5720   55.6940 C   0  0  0  0  0  0  0  0  0  0  0  0
    2.9840   46.7750   54.0770 H   0  0  0  0  0  0  0  0  0  0  0  0
    6.4633   45.9292   50.4592 H   0  0  0  0  0  0  0  0  0  0  0  0
    7.5197   48.5263   52.6604 H   0  0  0  0  0  0  0  0  0  0  0  0
    7.9569   47.6038   54.7397 H   0  0  0  0  0  0  0  0  0  0  0  0
    8.2132   45.9456   54.0605 H   0  0  0  0  0  0  0  0  0  0  0  0
   10.0582   48.3394   53.6561 H   0  0  0  0  0  0  0  0  0  0  0  0
   10.3205   46.9589   54.8036 H   0  0  0  0  0  0  0  0  0  0  0  0
   11.4094   47.0246   52.3540 H   0  0  0  0  0  0  0  0  0  0  0  0
   10.8397   45.4912   53.1718 H   0  0  0  0  0  0  0  0  0  0  0  0
   10.2229   46.0592   50.6398 H   0  0  0  0  0  0  0  0  0  0  0  0
    9.0920   45.2069   51.7749 H   0  0  0  0  0  0  0  0  0  0  0  0
    9.0865   48.1847   51.1263 H   0  0  0  0  0  0  0  0  0  0  0  0
    7.9189   46.9289   50.5229 H   0  0  0  0  0  0  0  0  0  0  0  0
    0.3820   43.3328   53.2893 H   0  0  0  0  0  0  0  0  0  0  0  0
   -1.6901   43.3328   54.6724 H   0  0  0  0  0  0  0  0  0  0  0  0
   -1.8421   44.7693   56.7013 H   0  0  0  0  0  0  0  0  0  0  0  0
   -1.0972   48.2537   59.9623 H   0  0  0  0  0  0  0  0  0  0  0  0
    2.1850   46.5480   58.3020 H   0  0  0  0  0  0  0  0  0  0  0  0
    2.1797   46.1958   55.9858 H   0  0  0  0  0  0  0  0  0  0  0  0
  1  2  2  0
  2  3  1  0
  3  4  1  0
  4  5  1  0
  5  6  2  0
  6  7  1  0
  7  8  1  0
  8  9  1  0
  9 10  1  0
 10 11  1  0
 11 12  1  0
 12 13  1  0
  7 14  1  0
  2 15  1  0
 15 16  2  0
 16 17  1  0
 17 18  2  0
 18 19  1  0
 19 20  1  0
 20 21  2  0
 21 22  1  0
 22 23  2  0
 23 24  1  0
 19 25  2  0
 14  4  2  0
 25 15  1  0
 13  8  1  0
 24 20  1  0
  3 26  1  0
  6 27  1  0
  8 28  1  0
  9 29  1  0
  9 30  1  0
 10 31  1  0
 10 32  1  0
 11 33  1  0
 11 34  1  0
 12 35  1  0
 12 36  1  0
 13 37  1  0
 13 38  1  0
 16 39  1  0
 17 40  1  0
 18 41  1  0
 22 42  1  0
 24 43  1  0
 25 44  1  0
M  END
>  <meeko>  (1) 
{"is_sidechain": false}

>  <CID>  (1) 
Z1657740785

>  <pose_index>  (1) 
1

>  <docking_score>  (1) 
-9.276

>  <rmsd_to_best_selected>  (1) 
0.0

>  <MWT>  (1) 
337.38699999999966

>  <TPSA>  (1) 
101.38

>  <logP>  (1) 
2.8207000000000004

>  <HBD>  (1) 
2

>  <HBA>  (1) 
6

>  <SMILES>  (1) 
[H]c1nc(-c2c([H])c([H])c([H])c(C(=O)N([H])c3nc([H])n(C4([H])C([H])([H])C([H])([H])C([H])([H])C([H])([H])C4([H])[H])n3)c2[H])n([H])n1

$$$$
Z1657740785_pose2
     RDKit          3D

 44 47  0  0  0  0  0  0  0  0999 V2000
    3.4121   43.7324   54.1693 O   0  0  0  0  0  0  0  0  0  0  0  0
    2.8580   44.8203   54.0609 C   0  0  0  0  0  0  0  0  0  0  0  0
    3.3048   45.9168   53.3686 N   0  0  0  0  0  0  0  0  0  0  0  0
    4.4973   45.9976   52.7085 C   0  0  0  0  0  0  0  0  0  0  0  0
    4.8460   45.2426   51.6292 N   0  0  0  0  0  0  0  0  0  0  0  0
    6.0579   45.6540   51.3440 C   0  0  0  0  0  0  0  0  0  0  0  0
    6.4220   46.6212   52.2255 N   0  0  0  0  0  0  0  0  0  0  0  0
    7.6825   47.3463   52.2717 C   0  0  0  0  0  0  0  0  0  0  0  0
    8.2790   47.3310   53.6912 C   0  0  0  0  0  0  0  0  0  0  0  0
    9.7707   47.6350   53.6689 C   0  0  0  0  0  0  0  0  0  0  0  0
   10.5532   46.5928   52.8687 C   0  0  0  0  0  0  0  0  0  0  0  0
    9.7375   45.9307   51.7559 C   0  0  0  0  0  0  0  0  0  0  0  0
    8.6742   46.8688   51.1920 C   0  0  0  0  0  0  0  0  0  0  0  0
    5.4358   46.8589   53.1122 N   0  0  0  0  0  0  0  0  0  0  0  0
    1.5268   44.9899   54.7139 C   0  0  0  0  0  0  0  0  0  0  0  0
    0.3839   44.6070   54.0015 C   0  0  0  0  0  0  0  0  0  0  0  0
   -0.8788   44.7514   54.5722 C   0  0  0  0  0  0  0  0  0  0  0  0
   -1.0099   45.2698   55.8630 C   0  0  0  0  0  0  0  0  0  0  0  0
    0.1229   45.6395   56.6036 C   0  0  0  0  0  0  0  0  0  0  0  0
    0.0352   46.1789   57.9626 C   0  0  0  0  0  0  0  0  0  0  0  0
   -0.9644   46.0199   58.8099 N   0  0  0  0  0  0  0  0  0  0  0  0
   -0.5676   46.7091   59.9178 C   0  0  0  0  0  0  0  0  0  0  0  0
    0.6247   47.2967   59.8216 N   0  0  0  0  0  0  0  0  0  0  0  0
    0.9841   46.9546   58.5744 N   0  0  0  0  0  0  0  0  0  0  0  0
    1.3918   45.4914   56.0150 C   0  0  0  0  0  0  0  0  0  0  0  0
    2.7378   46.7407   53.2489 H   0  0  0  0  0  0  0  0  0  0  0  0
    6.6814   45.2756   50.5206 H   0  0  0  0  0  0  0  0  0  0  0  0
    7.4715   48.3979   52.0277 H   0  0  0  0  0  0  0  0  0  0  0  0
    7.7681   48.0894   54.3026 H   0  0  0  0  0  0  0  0  0  0  0  0
    8.1362   46.3266   54.1165 H   0  0  0  0  0  0  0  0  0  0  0  0
    9.9254   48.6237   53.2121 H   0  0  0  0  0  0  0  0  0  0  0  0
   10.1382   47.6152   54.7055 H   0  0  0  0  0  0  0  0  0  0  0  0
   11.4242   47.0869   52.4135 H   0  0  0  0  0  0  0  0  0  0  0  0
   10.8412   45.7977   53.5722 H   0  0  0  0  0  0  0  0  0  0  0  0
   10.4182   45.6360   50.9436 H   0  0  0  0  0  0  0  0  0  0  0  0
    9.2265   45.0555   52.1836 H   0  0  0  0  0  0  0  0  0  0  0  0
    9.1728   47.7472   50.7563 H   0  0  0  0  0  0  0  0  0  0  0  0
    8.1036   46.3131   50.4333 H   0  0  0  0  0  0  0  0  0  0  0  0
    0.4832   44.1909   52.9880 H   0  0  0  0  0  0  0  0  0  0  0  0
   -1.7743   44.4567   54.0055 H   0  0  0  0  0  0  0  0  0  0  0  0
   -2.0111   45.3893   56.3029 H   0  0  0  0  0  0  0  0  0  0  0  0
   -1.1866   46.7752   60.8247 H   0  0  0  0  0  0  0  0  0  0  0  0
    1.8695   47.2858   58.2094 H   0  0  0  0  0  0  0  0  0  0  0  0
    2.2901   45.7731   56.5839 H   0  0  0  0  0  0  0  0  0  0  0  0
  1  2  2  0
  2  3  1  0
  3  4  1  0
  4  5  1  0
  5  6  2  0
  6  7  1  0
  7  8  1  0
  8  9  1  0
  9 10  1  0
 10 11  1  0
 11 12  1  0
 12 13  1  0
  7 14  1  0
  2 15  1  0
 15 16  2  0
 16 17  1  0
 17 18  2  0
 18 19  1  0
 19 20  1  0
 20 21  2  0
 21 22  1  0
 22 23  2  0
 23 24  1  0
 19 25  2  0
 14  4  2  0
 25 15  1  0
 13  8  1  0
 24 20  1  0
  3 26  1  0
  6 27  1  0
  8 28  1  0
  9 29  1  0
  9 30  1  0
 10 31  1  0
 10 32  1  0
 11 33  1  0
 11 34  1  0
 12 35  1  0
 12 36  1  0
 13 37  1  0
 13 38  1  0
 16 39  1  0
 17 40  1  0
 18 41  1  0
 22 42  1  0
 24 43  1  0
 25 44  1  0
M  END
>  <meeko>  (2) 
{"is_sidechain": false}

>  <CID>  (2) 
Z1657740785

>  <pose_index>  (2) 
2

>  <docking_score>  (2) 
-9.121

>  <rmsd_to_best_selected>  (2) 
0.6731070921118842

>  <MWT>  (2) 
337.38699999999966

>  <TPSA>  (2) 
101.38

>  <logP>  (2) 
2.8207000000000004

>  <HBD>  (2) 
2

>  <HBA>  (2) 
6

>  <SMILES>  (2) 
[H]c1nc(-c2c([H])c([H])c([H])c(C(=O)N([H])c3nc([H])n(C4([H])C([H])([H])C([H])([H])C([H])([H])C([H])([H])C4([H])[H])n3)c2[H])n([H])n1

$$$$
Z1657740785_pose5
     RDKit          3D

 44 47  0  0  0  0  0  0  0  0999 V2000
    3.7715   43.6619   54.3402 O   0  0  0  0  0  0  0  0  0  0  0  0
    3.0787   44.6605   54.1848 C   0  0  0  0  0  0  0  0  0  0  0  0
    3.3482   45.7445   53.3881 N   0  0  0  0  0  0  0  0  0  0  0  0
    4.4857   45.9170   52.6535 C   0  0  0  0  0  0  0  0  0  0  0  0
    4.7755   45.2628   51.4937 N   0  0  0  0  0  0  0  0  0  0  0  0
    5.9516   45.7351   51.1580 C   0  0  0  0  0  0  0  0  0  0  0  0
    6.3522   46.6416   52.0877 N   0  0  0  0  0  0  0  0  0  0  0  0
    7.5925   47.4024   52.1035 C   0  0  0  0  0  0  0  0  0  0  0  0
    8.1204   47.5715   53.5397 C   0  0  0  0  0  0  0  0  0  0  0  0
    9.6042   47.9130   53.5485 C   0  0  0  0  0  0  0  0  0  0  0  0
   10.4478   46.8066   52.9130 C   0  0  0  0  0  0  0  0  0  0  0  0
    9.7006   45.9958   51.8520 C   0  0  0  0  0  0  0  0  0  0  0  0
    8.6450   46.8295   51.1330 C   0  0  0  0  0  0  0  0  0  0  0  0
    5.4279   46.7745   53.0590 N   0  0  0  0  0  0  0  0  0  0  0  0
    1.7716   44.7180   54.9018 C   0  0  0  0  0  0  0  0  0  0  0  0
    0.7038   43.9653   54.3980 C   0  0  0  0  0  0  0  0  0  0  0  0
   -0.5360   43.9928   55.0339 C   0  0  0  0  0  0  0  0  0  0  0  0
   -0.7150   44.7645   56.1844 C   0  0  0  0  0  0  0  0  0  0  0  0
    0.3455   45.5091   56.7190 C   0  0  0  0  0  0  0  0  0  0  0  0
    0.2061   46.3244   57.9282 C   0  0  0  0  0  0  0  0  0  0  0  0
    1.0011   46.3129   58.9827 N   0  0  0  0  0  0  0  0  0  0  0  0
    0.4463   47.2342   59.8213 C   0  0  0  0  0  0  0  0  0  0  0  0
   -0.6546   47.8283   59.3612 N   0  0  0  0  0  0  0  0  0  0  0  0
   -0.7922   47.2324   58.1665 N   0  0  0  0  0  0  0  0  0  0  0  0
    1.5910   45.4749   56.0667 C   0  0  0  0  0  0  0  0  0  0  0  0
    2.6755   46.4802   53.2413 H   0  0  0  0  0  0  0  0  0  0  0  0
    6.5236   45.4436   50.2648 H   0  0  0  0  0  0  0  0  0  0  0  0
    7.3697   48.4117   51.7271 H   0  0  0  0  0  0  0  0  0  0  0  0
    7.5635   48.3818   54.0328 H   0  0  0  0  0  0  0  0  0  0  0  0
    7.9805   46.6205   54.0746 H   0  0  0  0  0  0  0  0  0  0  0  0
    9.7580   48.8454   52.9854 H   0  0  0  0  0  0  0  0  0  0  0  0
    9.9221   48.0254   54.5956 H   0  0  0  0  0  0  0  0  0  0  0  0
   11.3277   47.2684   52.4413 H   0  0  0  0  0  0  0  0  0  0  0  0
   10.7209   46.1083   53.7178 H   0  0  0  0  0  0  0  0  0  0  0  0
   10.4256   45.6261   51.1119 H   0  0  0  0  0  0  0  0  0  0  0  0
    9.1891   45.1639   52.3583 H   0  0  0  0  0  0  0  0  0  0  0  0
    9.1434   47.6642   50.6184 H   0  0  0  0  0  0  0  0  0  0  0  0
    8.1244   46.1726   50.4207 H   0  0  0  0  0  0  0  0  0  0  0  0
    0.8440   43.3501   53.4969 H   0  0  0  0  0  0  0  0  0  0  0  0
   -1.3742   43.4064   54.6295 H   0  0  0  0  0  0  0  0  0  0  0  0
   -1.6987   44.7880   56.6762 H   0  0  0  0  0  0  0  0  0  0  0  0
    0.8762   47.4699   60.8060 H   0  0  0  0  0  0  0  0  0  0  0  0
   -1.5792   47.4830   57.5795 H   0  0  0  0  0  0  0  0  0  0  0  0
    2.4343   46.0501   56.4766 H   0  0  0  0  0  0  0  0  0  0  0  0
  1  2  2  0
  2  3  1  0
  3  4  1  0
  4  5  1  0
  5  6  2  0
  6  7  1  0
  7  8  1  0
  8  9  1  0
  9 10  1  0
 10 11  1  0
 11 12  1  0
 12 13  1  0
  7 14  1  0
  2 15  1  0
 15 16  2  0
 16 17  1  0
 17 18  2  0
 18 19  1  0
 19 20  1  0
 20 21  2  0
 21 22  1  0
 22 23  2  0
 23 24  1  0
 19 25  2  0
 14  4  2  0
 25 15  1  0
 13  8  1  0
 24 20  1  0
  3 26  1  0
  6 27  1  0
  8 28  1  0
  9 29  1  0
  9 30  1  0
 10 31  1  0
 10 32  1  0
 11 33  1  0
 11 34  1  0
 12 35  1  0
 12 36  1  0
 13 37  1  0
 13 38  1  0
 16 39  1  0
 17 40  1  0
 18 41  1  0
 22 42  1  0
 24 43  1  0
 25 44  1  0
M  END
>  <meeko>  (3) 
{"is_sidechain": false}

>  <CID>  (3) 
Z1657740785

>  <pose_index>  (3) 
5

>  <docking_score>  (3) 
-8.636

>  <rmsd_to_best_selected>  (3) 
0.9967748901026161

>  <MWT>  (3) 
337.38699999999966

>  <TPSA>  (3) 
101.38

>  <logP>  (3) 
2.8207000000000004

>  <HBD>  (3) 
2

>  <HBA>  (3) 
6

>  <SMILES>  (3) 
[H]c1nc(-c2c([H])c([H])c([H])c(C(=O)N([H])c3nc([H])n(C4([H])C([H])([H])C([H])([H])C([H])([H])C([H])([H])C4([H])[H])n3)c2[H])n([H])n1

$$$$
Z1657740785_pose6
     RDKit          3D

 44 47  0  0  0  0  0  0  0  0999 V2000
    3.7208   43.7009   54.0522 O   0  0  0  0  0  0  0  0  0  0  0  0
    3.0571   44.7296   53.9976 C   0  0  0  0  0  0  0  0  0  0  0  0
    3.3301   45.8582   53.2687 N   0  0  0  0  0  0  0  0  0  0  0  0
    4.4411   46.0474   52.4995 C   0  0  0  0  0  0  0  0  0  0  0  0
    4.6247   45.5372   51.2493 N   0  0  0  0  0  0  0  0  0  0  0  0
    5.8156   45.9659   50.9106 C   0  0  0  0  0  0  0  0  0  0  0  0
    6.3293   46.7077   51.9270 N   0  0  0  0  0  0  0  0  0  0  0  0
    7.6242   47.3701   51.9707 C   0  0  0  0  0  0  0  0  0  0  0  0
    7.9934   47.7700   53.4113 C   0  0  0  0  0  0  0  0  0  0  0  0
    9.4916   48.0033   53.5561 C   0  0  0  0  0  0  0  0  0  0  0  0
   10.2968   46.7408   53.2464 C   0  0  0  0  0  0  0  0  0  0  0  0
    9.6083   45.7973   52.2568 C   0  0  0  0  0  0  0  0  0  0  0  0
    8.7261   46.5526   51.2668 C   0  0  0  0  0  0  0  0  0  0  0  0
    5.4663   46.7737   52.9585 N   0  0  0  0  0  0  0  0  0  0  0  0
    1.7831   44.7754   54.7737 C   0  0  0  0  0  0  0  0  0  0  0  0
    0.6879   44.0451   54.2964 C   0  0  0  0  0  0  0  0  0  0  0  0
   -0.5215   44.0637   54.9881 C   0  0  0  0  0  0  0  0  0  0  0  0
   -0.6440   44.8034   56.1669 C   0  0  0  0  0  0  0  0  0  0  0  0
    0.4462   45.5261   56.6743 C   0  0  0  0  0  0  0  0  0  0  0  0
    0.3677   46.3075   57.9110 C   0  0  0  0  0  0  0  0  0  0  0  0
    1.3791   46.8417   58.5706 N   0  0  0  0  0  0  0  0  0  0  0  0
    0.7868   47.4535   59.6376 C   0  0  0  0  0  0  0  0  0  0  0  0
   -0.5397   47.3355   59.6919 N   0  0  0  0  0  0  0  0  0  0  0  0
   -0.7832   46.6018   58.5958 N   0  0  0  0  0  0  0  0  0  0  0  0
    1.6605   45.5003   55.9664 C   0  0  0  0  0  0  0  0  0  0  0  0
    2.6778   46.6238   53.2040 H   0  0  0  0  0  0  0  0  0  0  0  0
    6.3197   45.7583   49.9552 H   0  0  0  0  0  0  0  0  0  0  0  0
    7.5413   48.3029   51.3936 H   0  0  0  0  0  0  0  0  0  0  0  0
    7.4600   48.6956   53.6737 H   0  0  0  0  0  0  0  0  0  0  0  0
    7.7040   46.9490   54.0837 H   0  0  0  0  0  0  0  0  0  0  0  0
    9.7966   48.7993   52.8608 H   0  0  0  0  0  0  0  0  0  0  0  0
    9.6933   48.2895   54.5989 H   0  0  0  0  0  0  0  0  0  0  0  0
   11.2655   47.0426   52.8214 H   0  0  0  0  0  0  0  0  0  0  0  0
   10.4059   46.1897   54.1921 H   0  0  0  0  0  0  0  0  0  0  0  0
   10.3783   45.2458   51.6974 H   0  0  0  0  0  0  0  0  0  0  0  0
    8.9664   45.1126   52.8305 H   0  0  0  0  0  0  0  0  0  0  0  0
    9.3570   47.2387   50.6826 H   0  0  0  0  0  0  0  0  0  0  0  0
    8.2341   45.8109   50.6204 H   0  0  0  0  0  0  0  0  0  0  0  0
    0.7825   43.4551   53.3728 H   0  0  0  0  0  0  0  0  0  0  0  0
   -1.3815   43.4948   54.6053 H   0  0  0  0  0  0  0  0  0  0  0  0
   -1.6046   44.8193   56.7025 H   0  0  0  0  0  0  0  0  0  0  0  0
    1.3621   48.0035   60.3968 H   0  0  0  0  0  0  0  0  0  0  0  0
   -1.7370   46.3360   58.3829 H   0  0  0  0  0  0  0  0  0  0  0  0
    2.5263   46.0570   56.3542 H   0  0  0  0  0  0  0  0  0  0  0  0
  1  2  2  0
  2  3  1  0
  3  4  1  0
  4  5  1  0
  5  6  2  0
  6  7  1  0
  7  8  1  0
  8  9  1  0
  9 10  1  0
 10 11  1  0
 11 12  1  0
 12 13  1  0
  7 14  1  0
  2 15  1  0
 15 16  2  0
 16 17  1  0
 17 18  2  0
 18 19  1  0
 19 20  1  0
 20 21  2  0
 21 22  1  0
 22 23  2  0
 23 24  1  0
 19 25  2  0
 14  4  2  0
 25 15  1  0
 13  8  1  0
 24 20  1  0
  3 26  1  0
  6 27  1  0
  8 28  1  0
  9 29  1  0
  9 30  1  0
 10 31  1  0
 10 32  1  0
 11 33  1  0
 11 34  1  0
 12 35  1  0
 12 36  1  0
 13 37  1  0
 13 38  1  0
 16 39  1  0
 17 40  1  0
 18 41  1  0
 22 42  1  0
 24 43  1  0
 25 44  1  0
M  END
>  <meeko>  (4) 
{"is_sidechain": false}

>  <CID>  (4) 
Z1657740785

>  <pose_index>  (4) 
6

>  <docking_score>  (4) 
-8.633

>  <rmsd_to_best_selected>  (4) 
1.1356629668797664

>  <MWT>  (4) 
337.38699999999966

>  <TPSA>  (4) 
101.38

>  <logP>  (4) 
2.8207000000000004

>  <HBD>  (4) 
2

>  <HBA>  (4) 
6

>  <SMILES>  (4) 
[H]c1nc(-c2c([H])c([H])c([H])c(C(=O)N([H])c3nc([H])n(C4([H])C([H])([H])C([H])([H])C([H])([H])C([H])([H])C4([H])[H])n3)c2[H])n([H])n1

$$$$
Z1657740785_pose7
     RDKit          3D

 44 47  0  0  0  0  0  0  0  0999 V2000
    3.2663   43.5520   53.7566 O   0  0  0  0  0  0  0  0  0  0  0  0
    2.8231   44.6716   53.9801 C   0  0  0  0  0  0  0  0  0  0  0  0
    3.3515   45.8718   53.5768 N   0  0  0  0  0  0  0  0  0  0  0  0
    4.5172   46.0245   52.8827 C   0  0  0  0  0  0  0  0  0  0  0  0
    4.6066   46.4023   51.5768 N   0  0  0  0  0  0  0  0  0  0  0  0
    5.8961   46.4069   51.3437 C   0  0  0  0  0  0  0  0  0  0  0  0
    6.5561   46.0418   52.4738 N   0  0  0  0  0  0  0  0  0  0  0  0
    7.9954   45.9170   52.6566 C   0  0  0  0  0  0  0  0  0  0  0  0
    8.7455   46.1871   51.3385 C   0  0  0  0  0  0  0  0  0  0  0  0
   10.2044   46.5412   51.5936 C   0  0  0  0  0  0  0  0  0  0  0  0
   10.3427   47.8142   52.4306 C   0  0  0  0  0  0  0  0  0  0  0  0
    9.1615   48.0672   53.3695 C   0  0  0  0  0  0  0  0  0  0  0  0
    8.5130   46.7660   53.8346 C   0  0  0  0  0  0  0  0  0  0  0  0
    5.6921   45.7902   53.4760 N   0  0  0  0  0  0  0  0  0  0  0  0
    1.5446   44.7740   54.7432 C   0  0  0  0  0  0  0  0  0  0  0  0
    0.4227   44.0939   54.2537 C   0  0  0  0  0  0  0  0  0  0  0  0
   -0.7919   44.1645   54.9333 C   0  0  0  0  0  0  0  0  0  0  0  0
   -0.8923   44.9075   56.1122 C   0  0  0  0  0  0  0  0  0  0  0  0
    0.2238   45.5795   56.6324 C   0  0  0  0  0  0  0  0  0  0  0  0
    0.1681   46.3621   57.8701 C   0  0  0  0  0  0  0  0  0  0  0  0
    1.0394   46.3308   58.8612 N   0  0  0  0  0  0  0  0  0  0  0  0
    0.5399   47.2254   59.7626 C   0  0  0  0  0  0  0  0  0  0  0  0
   -0.5979   47.8179   59.4018 N   0  0  0  0  0  0  0  0  0  0  0  0
   -0.8187   47.2528   58.2052 N   0  0  0  0  0  0  0  0  0  0  0  0
    1.4432   45.5018   55.9362 C   0  0  0  0  0  0  0  0  0  0  0  0
    2.8675   46.7440   53.7204 H   0  0  0  0  0  0  0  0  0  0  0  0
    6.3693   46.6654   50.3849 H   0  0  0  0  0  0  0  0  0  0  0  0
    8.2083   44.8744   52.9353 H   0  0  0  0  0  0  0  0  0  0  0  0
    8.7004   45.2857   50.7095 H   0  0  0  0  0  0  0  0  0  0  0  0
    8.2650   47.0385   50.8342 H   0  0  0  0  0  0  0  0  0  0  0  0
   10.6842   45.7090   52.1295 H   0  0  0  0  0  0  0  0  0  0  0  0
   10.6883   46.7172   50.6215 H   0  0  0  0  0  0  0  0  0  0  0  0
   11.2566   47.7328   53.0372 H   0  0  0  0  0  0  0  0  0  0  0  0
   10.3786   48.6583   51.7262 H   0  0  0  0  0  0  0  0  0  0  0  0
    9.5199   48.6203   54.2502 H   0  0  0  0  0  0  0  0  0  0  0  0
    8.4059   48.6455   52.8174 H   0  0  0  0  0  0  0  0  0  0  0  0
    9.2575   46.1796   54.3932 H   0  0  0  0  0  0  0  0  0  0  0  0
    7.6510   47.0264   54.4664 H   0  0  0  0  0  0  0  0  0  0  0  0
    0.5004   43.5020   53.3298 H   0  0  0  0  0  0  0  0  0  0  0  0
   -1.6725   43.6346   54.5411 H   0  0  0  0  0  0  0  0  0  0  0  0
   -1.8567   44.9662   56.6380 H   0  0  0  0  0  0  0  0  0  0  0  0
    1.0403   47.4417   60.7180 H   0  0  0  0  0  0  0  0  0  0  0  0
   -1.6492   47.5086   57.6853 H   0  0  0  0  0  0  0  0  0  0  0  0
    2.3289   46.0191   56.3335 H   0  0  0  0  0  0  0  0  0  0  0  0
  1  2  2  0
  2  3  1  0
  3  4  1  0
  4  5  1  0
  5  6  2  0
  6  7  1  0
  7  8  1  0
  8  9  1  0
  9 10  1  0
 10 11  1  0
 11 12  1  0
 12 13  1  0
  7 14  1  0
  2 15  1  0
 15 16  2  0
 16 17  1  0
 17 18  2  0
 18 19  1  0
 19 20  1  0
 20 21  2  0
 21 22  1  0
 22 23  2  0
 23 24  1  0
 19 25  2  0
 14  4  2  0
 25 15  1  0
 13  8  1  0
 24 20  1  0
  3 26  1  0
  6 27  1  0
  8 28  1  0
  9 29  1  0
  9 30  1  0
 10 31  1  0
 10 32  1  0
 11 33  1  0
 11 34  1  0
 12 35  1  0
 12 36  1  0
 13 37  1  0
 13 38  1  0
 16 39  1  0
 17 40  1  0
 18 41  1  0
 22 42  1  0
 24 43  1  0
 25 44  1  0
M  END
>  <meeko>  (5) 
{"is_sidechain": false}

>  <CID>  (5) 
Z1657740785

>  <pose_index>  (5) 
7

>  <docking_score>  (5) 
-8.61

>  <rmsd_to_best_selected>  (5) 
1.3850703045449084

>  <MWT>  (5) 
337.38699999999966

>  <TPSA>  (5) 
101.38

>  <logP>  (5) 
2.8207000000000004

>  <HBD>  (5) 
2

>  <HBA>  (5) 
6

>  <SMILES>  (5) 
[H]c1nc(-c2c([H])c([H])c([H])c(C(=O)N([H])c3nc([H])n(C4([H])C([H])([H])C([H])([H])C([H])([H])C([H])([H])C4([H])[H])n3)c2[H])n([H])n1

$$$$
Z1657740785_pose9
     RDKit          3D

 44 47  0  0  0  0  0  0  0  0999 V2000
    2.0602   46.7794   52.2440 O   0  0  0  0  0  0  0  0  0  0  0  0
    2.3487   46.4571   53.3903 C   0  0  0  0  0  0  0  0  0  0  0  0
    3.5350   46.6767   54.0440 N   0  0  0  0  0  0  0  0  0  0  0  0
    4.6378   47.2651   53.4947 C   0  0  0  0  0  0  0  0  0  0  0  0
    4.8252   48.6077   53.3659 N   0  0  0  0  0  0  0  0  0  0  0  0
    5.9987   48.7023   52.7888 C   0  0  0  0  0  0  0  0  0  0  0  0
    6.4943   47.4540   52.5782 N   0  0  0  0  0  0  0  0  0  0  0  0
    7.7664   47.1007   51.9637 C   0  0  0  0  0  0  0  0  0  0  0  0
    8.9280   47.8799   52.6082 C   0  0  0  0  0  0  0  0  0  0  0  0
   10.2646   47.1981   52.3468 C   0  0  0  0  0  0  0  0  0  0  0  0
   10.3128   45.7910   52.9444 C   0  0  0  0  0  0  0  0  0  0  0  0
    8.9437   45.1142   53.0405 C   0  0  0  0  0  0  0  0  0  0  0  0
    7.9996   45.5766   51.9346 C   0  0  0  0  0  0  0  0  0  0  0  0
    5.6376   46.5146   53.0223 N   0  0  0  0  0  0  0  0  0  0  0  0
    1.2987   45.7778   54.2062 C   0  0  0  0  0  0  0  0  0  0  0  0
    0.3930   44.9337   53.5534 C   0  0  0  0  0  0  0  0  0  0  0  0
   -0.6043   44.2825   54.2774 C   0  0  0  0  0  0  0  0  0  0  0  0
   -0.6982   44.4624   55.6589 C   0  0  0  0  0  0  0  0  0  0  0  0
    0.2119   45.2866   56.3375 C   0  0  0  0  0  0  0  0  0  0  0  0
    0.1581   45.4978   57.7857 C   0  0  0  0  0  0  0  0  0  0  0  0
   -0.8993   45.3540   58.5636 N   0  0  0  0  0  0  0  0  0  0  0  0
   -0.4340   45.6664   59.8080 C   0  0  0  0  0  0  0  0  0  0  0  0
    0.8539   46.0016   59.8628 N   0  0  0  0  0  0  0  0  0  0  0  0
    1.2073   45.8949   58.5729 N   0  0  0  0  0  0  0  0  0  0  0  0
    1.2120   45.9396   55.5955 C   0  0  0  0  0  0  0  0  0  0  0  0
    3.6534   46.4661   55.0219 H   0  0  0  0  0  0  0  0  0  0  0  0
    6.5021   49.6422   52.5182 H   0  0  0  0  0  0  0  0  0  0  0  0
    7.7253   47.4087   50.9085 H   0  0  0  0  0  0  0  0  0  0  0  0
    8.9556   48.8956   52.1867 H   0  0  0  0  0  0  0  0  0  0  0  0
    8.7624   47.9138   53.6951 H   0  0  0  0  0  0  0  0  0  0  0  0
   10.4222   47.1288   51.2604 H   0  0  0  0  0  0  0  0  0  0  0  0
   11.0530   47.7986   52.8240 H   0  0  0  0  0  0  0  0  0  0  0  0
   10.9641   45.1683   52.3134 H   0  0  0  0  0  0  0  0  0  0  0  0
   10.6935   45.8917   53.9714 H   0  0  0  0  0  0  0  0  0  0  0  0
    9.0791   44.0255   52.9600 H   0  0  0  0  0  0  0  0  0  0  0  0
    8.4958   45.3885   54.0070 H   0  0  0  0  0  0  0  0  0  0  0  0
    8.4339   45.3036   50.9615 H   0  0  0  0  0  0  0  0  0  0  0  0
    7.0287   45.0844   52.0932 H   0  0  0  0  0  0  0  0  0  0  0  0
    0.4684   44.7838   52.4663 H   0  0  0  0  0  0  0  0  0  0  0  0
   -1.3188   43.6258   53.7595 H   0  0  0  0  0  0  0  0  0  0  0  0
   -1.4942   43.9523   56.2212 H   0  0  0  0  0  0  0  0  0  0  0  0
   -1.0760   45.6430   60.7009 H   0  0  0  0  0  0  0  0  0  0  0  0
    2.1593   46.1116   58.3034 H   0  0  0  0  0  0  0  0  0  0  0  0
    1.9363   46.5862   56.1126 H   0  0  0  0  0  0  0  0  0  0  0  0
  1  2  2  0
  2  3  1  0
  3  4  1  0
  4  5  1  0
  5  6  2  0
  6  7  1  0
  7  8  1  0
  8  9  1  0
  9 10  1  0
 10 11  1  0
 11 12  1  0
 12 13  1  0
  7 14  1  0
  2 15  1  0
 15 16  2  0
 16 17  1  0
 17 18  2  0
 18 19  1  0
 19 20  1  0
 20 21  2  0
 21 22  1  0
 22 23  2  0
 23 24  1  0
 19 25  2  0
 14  4  2  0
 25 15  1  0
 13  8  1  0
 24 20  1  0
  3 26  1  0
  6 27  1  0
  8 28  1  0
  9 29  1  0
  9 30  1  0
 10 31  1  0
 10 32  1  0
 11 33  1  0
 11 34  1  0
 12 35  1  0
 12 36  1  0
 13 37  1  0
 13 38  1  0
 16 39  1  0
 17 40  1  0
 18 41  1  0
 22 42  1  0
 24 43  1  0
 25 44  1  0
M  END
>  <meeko>  (6) 
{"is_sidechain": false}

>  <CID>  (6) 
Z1657740785

>  <pose_index>  (6) 
9

>  <docking_score>  (6) 
-8.368

>  <rmsd_to_best_selected>  (6) 
1.5194137744293423

>  <MWT>  (6) 
337.38699999999966

>  <TPSA>  (6) 
101.38

>  <logP>  (6) 
2.8207000000000004

>  <HBD>  (6) 
2

>  <HBA>  (6) 
6

>  <SMILES>  (6) 
[H]c1nc(-c2c([H])c([H])c([H])c(C(=O)N([H])c3nc([H])n(C4([H])C([H])([H])C([H])([H])C([H])([H])C([H])([H])C4([H])[H])n3)c2[H])n([H])n1

$$$$
