Z168978470_pose1
     RDKit          3D

 40 42  0  0  0  0  0  0  0  0999 V2000
    1.7190   43.1270   52.8350 C   0  0  0  0  0  0  0  0  0  0  0  0
    3.0380   43.6180   52.2410 C   0  0  2  0  0  0  0  0  0  0  0  0
    3.9000   42.4730   52.1390 O   0  0  0  0  0  0  0  0  0  0  0  0
    4.5480   42.2370   50.9590 C   0  0  0  0  0  0  0  0  0  0  0  0
    3.9770   41.2230   50.1840 C   0  0  0  0  0  0  0  0  0  0  0  0
    4.5290   40.8690   48.9510 C   0  0  0  0  0  0  0  0  0  0  0  0
    5.6620   41.5290   48.4850 C   0  0  0  0  0  0  0  0  0  0  0  0
    6.2390   42.5400   49.2510 C   0  0  0  0  0  0  0  0  0  0  0  0
    5.6840   42.8950   50.4860 C   0  0  0  0  0  0  0  0  0  0  0  0
    3.6120   44.7110   53.1300 C   0  0  0  0  0  0  0  0  0  0  0  0
    3.0700   44.8660   54.3390 N   0  0  0  0  0  0  0  0  0  0  0  0
    3.6000   45.8350   55.0650 C   0  0  0  0  0  0  0  0  0  0  0  0
    3.0790   46.0340   56.3270 N   0  0  0  0  0  0  0  0  0  0  0  0
    4.6130   46.6020   54.6950 N   0  0  0  0  0  0  0  0  0  0  0  0
    5.0970   46.3800   53.4760 C   0  0  0  0  0  0  0  0  0  0  0  0
    6.1590   47.2020   53.1040 N   0  0  0  0  0  0  0  0  0  0  0  0
    7.5260   46.9820   52.8960 C   0  0  0  0  0  0  0  0  0  0  0  0
    8.5330   47.4460   53.7470 C   0  0  0  0  0  0  0  0  0  0  0  0
    9.8850   47.2210   53.4640 C   0  0  0  0  0  0  0  0  0  0  0  0
   10.2550   46.5330   52.3120 C   0  0  0  0  0  0  0  0  0  0  0  0
    9.2720   46.0730   51.4430 C   0  0  0  0  0  0  0  0  0  0  0  0
    7.9220   46.3010   51.7310 C   0  0  0  0  0  0  0  0  0  0  0  0
    4.6360   45.4320   52.6710 N   0  0  0  0  0  0  0  0  0  0  0  0
    1.7803   43.1498   53.9331 H   0  0  0  0  0  0  0  0  0  0  0  0
    0.9001   43.7805   52.4998 H   0  0  0  0  0  0  0  0  0  0  0  0
    1.5268   42.0971   52.4998 H   0  0  0  0  0  0  0  0  0  0  0  0
    2.9120   44.0608   51.2420 H   0  0  0  0  0  0  0  0  0  0  0  0
    3.0824   40.6978   50.5498 H   0  0  0  0  0  0  0  0  0  0  0  0
    4.0694   40.0706   48.3498 H   0  0  0  0  0  0  0  0  0  0  0  0
    6.1009   41.2534   47.5147 H   0  0  0  0  0  0  0  0  0  0  0  0
    7.1350   43.0616   48.8834 H   0  0  0  0  0  0  0  0  0  0  0  0
    6.1444   43.6945   51.0850 H   0  0  0  0  0  0  0  0  0  0  0  0
    2.3690   45.3440   56.5320 H   0  0  0  0  0  0  0  0  0  0  0  0
    2.8360   47.0050   56.4630 H   0  0  0  0  0  0  0  0  0  0  0  0
    5.7990   48.0980   52.8120 H   0  0  0  0  0  0  0  0  0  0  0  0
    8.2574   47.9989   54.6571 H   0  0  0  0  0  0  0  0  0  0  0  0
   10.6581   47.5892   54.1545 H   0  0  0  0  0  0  0  0  0  0  0  0
   11.3176   46.3545   52.0907 H   0  0  0  0  0  0  0  0  0  0  0  0
    9.5556   45.5300   50.5294 H   0  0  0  0  0  0  0  0  0  0  0  0
    7.1539   45.9399   51.0313 H   0  0  0  0  0  0  0  0  0  0  0  0
  1  2  1  0
  2  3  1  0
  3  4  1  0
  4  5  2  0
  5  6  1  0
  6  7  2  0
  7  8  1  0
  8  9  2  0
  2 10  1  0
 10 11  2  0
 11 12  1  0
 12 13  1  0
 12 14  2  0
 14 15  1  0
 15 16  1  0
 16 17  1  0
 17 18  2  0
 18 19  1  0
 19 20  2  0
 20 21  1  0
 21 22  2  0
 15 23  2  0
  9  4  1  0
 23 10  1  0
 22 17  1  0
  1 24  1  0
  1 25  1  0
  1 26  1  0
  2 27  1  6
  5 28  1  0
  6 29  1  0
  7 30  1  0
  8 31  1  0
  9 32  1  0
 13 33  1  0
 13 34  1  0
 16 35  1  0
 18 36  1  0
 19 37  1  0
 20 38  1  0
 21 39  1  0
 22 40  1  0
M  END
>  <meeko>  (1) 
{"is_sidechain": false}

>  <CID>  (1) 
Z168978470

>  <pose_index>  (1) 
1

>  <docking_score>  (1) 
-9.16

>  <rmsd_to_best_selected>  (1) 
0.0

>  <MWT>  (1) 
307.3569999999997

>  <TPSA>  (1) 
85.95

>  <logP>  (1) 
3.3374000000000006

>  <HBD>  (1) 
2

>  <HBA>  (1) 
6

>  <SMILES>  (1) 
[H]c1c([H])c([H])c(OC([H])(c2nc(N([H])[H])nc(N([H])c3c([H])c([H])c([H])c([H])c3[H])n2)C([H])([H])[H])c([H])c1[H]

$$$$
Z168978470_pose2
     RDKit          3D

 40 42  0  0  0  0  0  0  0  0999 V2000
    1.2977   43.4772   52.5212 C   0  0  0  0  0  0  0  0  0  0  0  0
    2.6761   43.9190   52.0306 C   0  0  2  0  0  0  0  0  0  0  0  0
    3.3869   42.7259   51.6595 O   0  0  0  0  0  0  0  0  0  0  0  0
    4.4392   42.8260   50.7930 C   0  0  0  0  0  0  0  0  0  0  0  0
    5.4717   41.9161   51.0378 C   0  0  0  0  0  0  0  0  0  0  0  0
    6.6140   41.8992   50.2346 C   0  0  0  0  0  0  0  0  0  0  0  0
    6.7302   42.7969   49.1762 C   0  0  0  0  0  0  0  0  0  0  0  0
    5.7058   43.7067   48.9265 C   0  0  0  0  0  0  0  0  0  0  0  0
    4.5614   43.7222   49.7315 C   0  0  0  0  0  0  0  0  0  0  0  0
    3.3735   44.7023   53.1315 C   0  0  0  0  0  0  0  0  0  0  0  0
    2.6062   45.2434   54.0795 N   0  0  0  0  0  0  0  0  0  0  0  0
    3.2628   45.9204   55.0056 C   0  0  0  0  0  0  0  0  0  0  0  0
    2.5162   46.4963   56.0139 N   0  0  0  0  0  0  0  0  0  0  0  0
    4.5768   46.0592   55.0655 N   0  0  0  0  0  0  0  0  0  0  0  0
    5.2682   45.4861   54.0836 C   0  0  0  0  0  0  0  0  0  0  0  0
    6.6502   45.6477   54.1628 N   0  0  0  0  0  0  0  0  0  0  0  0
    7.6623   45.8054   53.2069 C   0  0  0  0  0  0  0  0  0  0  0  0
    8.3371   47.0070   52.9734 C   0  0  0  0  0  0  0  0  0  0  0  0
    9.3173   47.1070   51.9787 C   0  0  0  0  0  0  0  0  0  0  0  0
    9.6318   46.0042   51.1911 C   0  0  0  0  0  0  0  0  0  0  0  0
    8.9641   44.8022   51.3953 C   0  0  0  0  0  0  0  0  0  0  0  0
    7.9859   44.7081   52.3910 C   0  0  0  0  0  0  0  0  0  0  0  0
    4.7047   44.7842   53.1094 N   0  0  0  0  0  0  0  0  0  0  0  0
    0.6071   43.4152   51.6673 H   0  0  0  0  0  0  0  0  0  0  0  0
    1.3780   42.4903   53.0003 H   0  0  0  0  0  0  0  0  0  0  0  0
    0.9160   44.2082   53.2492 H   0  0  0  0  0  0  0  0  0  0  0  0
    2.6193   44.5877   51.1591 H   0  0  0  0  0  0  0  0  0  0  0  0
    5.3834   41.2052   51.8726 H   0  0  0  0  0  0  0  0  0  0  0  0
    7.4200   41.1786   50.4373 H   0  0  0  0  0  0  0  0  0  0  0  0
    7.6275   42.7874   48.5401 H   0  0  0  0  0  0  0  0  0  0  0  0
    5.7969   44.4171   48.0917 H   0  0  0  0  0  0  0  0  0  0  0  0
    3.7562   44.4431   49.5266 H   0  0  0  0  0  0  0  0  0  0  0  0
    3.1099   47.0174   56.6428 H   0  0  0  0  0  0  0  0  0  0  0  0
    1.8865   45.8196   56.4218 H   0  0  0  0  0  0  0  0  0  0  0  0
    6.9105   45.8075   55.1238 H   0  0  0  0  0  0  0  0  0  0  0  0
    8.0937   47.8901   53.5824 H   0  0  0  0  0  0  0  0  0  0  0  0
    9.8407   48.0613   51.8193 H   0  0  0  0  0  0  0  0  0  0  0  0
   10.4041   46.0828   50.4117 H   0  0  0  0  0  0  0  0  0  0  0  0
    9.2046   43.9262   50.7749 H   0  0  0  0  0  0  0  0  0  0  0  0
    7.4585   43.7542   52.5385 H   0  0  0  0  0  0  0  0  0  0  0  0
  1  2  1  0
  2  3  1  0
  3  4  1  0
  4  5  2  0
  5  6  1  0
  6  7  2  0
  7  8  1  0
  8  9  2  0
  2 10  1  0
 10 11  2  0
 11 12  1  0
 12 13  1  0
 12 14  2  0
 14 15  1  0
 15 16  1  0
 16 17  1  0
 17 18  2  0
 18 19  1  0
 19 20  2  0
 20 21  1  0
 21 22  2  0
 15 23  2  0
  9  4  1  0
 23 10  1  0
 22 17  1  0
  1 24  1  0
  1 25  1  0
  1 26  1  0
  2 27  1  6
  5 28  1  0
  6 29  1  0
  7 30  1  0
  8 31  1  0
  9 32  1  0
 13 33  1  0
 13 34  1  0
 16 35  1  0
 18 36  1  0
 19 37  1  0
 20 38  1  0
 21 39  1  0
 22 40  1  0
M  END
>  <meeko>  (2) 
{"is_sidechain": false}

>  <CID>  (2) 
Z168978470

>  <pose_index>  (2) 
2

>  <docking_score>  (2) 
-8.835

>  <rmsd_to_best_selected>  (2) 
1.7230058606130492

>  <MWT>  (2) 
307.3569999999997

>  <TPSA>  (2) 
85.95

>  <logP>  (2) 
3.3374000000000006

>  <HBD>  (2) 
2

>  <HBA>  (2) 
6

>  <SMILES>  (2) 
[H]c1c([H])c([H])c(OC([H])(c2nc(N([H])[H])nc(N([H])c3c([H])c([H])c([H])c([H])c3[H])n2)C([H])([H])[H])c([H])c1[H]

$$$$
Z168978470_pose3
     RDKit          3D

 40 42  0  0  0  0  0  0  0  0999 V2000
    1.3152   43.5396   52.5279 C   0  0  0  0  0  0  0  0  0  0  0  0
    2.7285   43.8888   52.0650 C   0  0  2  0  0  0  0  0  0  0  0  0
    3.3829   42.6467   51.7535 O   0  0  0  0  0  0  0  0  0  0  0  0
    4.4703   42.6613   50.9257 C   0  0  0  0  0  0  0  0  0  0  0  0
    4.3457   43.5221   49.8307 C   0  0  0  0  0  0  0  0  0  0  0  0
    5.3760   43.6423   48.8962 C   0  0  0  0  0  0  0  0  0  0  0  0
    6.5433   42.9003   49.0527 C   0  0  0  0  0  0  0  0  0  0  0  0
    6.6746   42.0395   50.1408 C   0  0  0  0  0  0  0  0  0  0  0  0
    5.6420   41.9194   51.0773 C   0  0  0  0  0  0  0  0  0  0  0  0
    3.4376   44.6704   53.1608 C   0  0  0  0  0  0  0  0  0  0  0  0
    2.6768   45.2460   54.0928 N   0  0  0  0  0  0  0  0  0  0  0  0
    3.3424   45.9203   55.0139 C   0  0  0  0  0  0  0  0  0  0  0  0
    2.6018   46.5317   56.0056 N   0  0  0  0  0  0  0  0  0  0  0  0
    4.6598   46.0231   55.0849 N   0  0  0  0  0  0  0  0  0  0  0  0
    5.3438   45.4162   54.1192 C   0  0  0  0  0  0  0  0  0  0  0  0
    6.7290   45.5412   54.2086 N   0  0  0  0  0  0  0  0  0  0  0  0
    7.7453   45.7416   53.2674 C   0  0  0  0  0  0  0  0  0  0  0  0
    8.4525   46.9391   53.1204 C   0  0  0  0  0  0  0  0  0  0  0  0
    9.4358   47.0860   52.1351 C   0  0  0  0  0  0  0  0  0  0  0  0
    9.7226   46.0341   51.2693 C   0  0  0  0  0  0  0  0  0  0  0  0
    9.0237   44.8391   51.3864 C   0  0  0  0  0  0  0  0  0  0  0  0
    8.0425   44.6979   52.3739 C   0  0  0  0  0  0  0  0  0  0  0  0
    4.7705   44.7151   53.1501 N   0  0  0  0  0  0  0  0  0  0  0  0
    0.6275   43.5827   51.6705 H   0  0  0  0  0  0  0  0  0  0  0  0
    1.3087   42.5249   52.9525 H   0  0  0  0  0  0  0  0  0  0  0  0
    0.9919   44.2598   53.2939 H   0  0  0  0  0  0  0  0  0  0  0  0
    2.7329   44.5298   51.1712 H   0  0  0  0  0  0  0  0  0  0  0  0
    3.4255   44.1113   49.7041 H   0  0  0  0  0  0  0  0  0  0  0  0
    5.2656   44.3217   48.0382 H   0  0  0  0  0  0  0  0  0  0  0  0
    7.3589   42.9931   48.3205 H   0  0  0  0  0  0  0  0  0  0  0  0
    7.5956   41.4509   50.2641 H   0  0  0  0  0  0  0  0  0  0  0  0
    5.7543   41.2391   51.9343 H   0  0  0  0  0  0  0  0  0  0  0  0
    1.9160   45.8927   56.3818 H   0  0  0  0  0  0  0  0  0  0  0  0
    2.2763   47.4377   55.6994 H   0  0  0  0  0  0  0  0  0  0  0  0
    6.9912   45.6293   55.1795 H   0  0  0  0  0  0  0  0  0  0  0  0
    8.2317   47.7819   53.7921 H   0  0  0  0  0  0  0  0  0  0  0  0
    9.9837   48.0355   52.0446 H   0  0  0  0  0  0  0  0  0  0  0  0
   10.4978   46.1484   50.4973 H   0  0  0  0  0  0  0  0  0  0  0  0
    9.2414   44.0048   50.7034 H   0  0  0  0  0  0  0  0  0  0  0  0
    7.4914   43.7491   52.4528 H   0  0  0  0  0  0  0  0  0  0  0  0
  1  2  1  0
  2  3  1  0
  3  4  1  0
  4  5  2  0
  5  6  1  0
  6  7  2  0
  7  8  1  0
  8  9  2  0
  2 10  1  0
 10 11  2  0
 11 12  1  0
 12 13  1  0
 12 14  2  0
 14 15  1  0
 15 16  1  0
 16 17  1  0
 17 18  2  0
 18 19  1  0
 19 20  2  0
 20 21  1  0
 21 22  2  0
 15 23  2  0
  9  4  1  0
 23 10  1  0
 22 17  1  0
  1 24  1  0
  1 25  1  0
  1 26  1  0
  2 27  1  6
  5 28  1  0
  6 29  1  0
  7 30  1  0
  8 31  1  0
  9 32  1  0
 13 33  1  0
 13 34  1  0
 16 35  1  0
 18 36  1  0
 19 37  1  0
 20 38  1  0
 21 39  1  0
 22 40  1  0
M  END
>  <meeko>  (3) 
{"is_sidechain": false}

>  <CID>  (3) 
Z168978470

>  <pose_index>  (3) 
3

>  <docking_score>  (3) 
-8.785

>  <rmsd_to_best_selected>  (3) 
1.7000190331341483

>  <MWT>  (3) 
307.3569999999997

>  <TPSA>  (3) 
85.95

>  <logP>  (3) 
3.3374000000000006

>  <HBD>  (3) 
2

>  <HBA>  (3) 
6

>  <SMILES>  (3) 
[H]c1c([H])c([H])c(OC([H])(c2nc(N([H])[H])nc(N([H])c3c([H])c([H])c([H])c([H])c3[H])n2)C([H])([H])[H])c([H])c1[H]

$$$$
Z168978470_pose5
     RDKit          3D

 40 42  0  0  0  0  0  0  0  0999 V2000
    1.6654   43.5722   52.5365 C   0  0  0  0  0  0  0  0  0  0  0  0
    3.0246   44.0066   51.9902 C   0  0  2  0  0  0  0  0  0  0  0  0
    3.8087   42.8133   51.8278 O   0  0  0  0  0  0  0  0  0  0  0  0
    4.1607   42.4195   50.5669 C   0  0  0  0  0  0  0  0  0  0  0  0
    5.4263   41.8333   50.4817 C   0  0  0  0  0  0  0  0  0  0  0  0
    5.9229   41.3809   49.2576 C   0  0  0  0  0  0  0  0  0  0  0  0
    5.1526   41.5138   48.1062 C   0  0  0  0  0  0  0  0  0  0  0  0
    3.8898   42.0980   48.1817 C   0  0  0  0  0  0  0  0  0  0  0  0
    3.3921   42.5497   49.4093 C   0  0  0  0  0  0  0  0  0  0  0  0
    3.6572   45.0019   52.9516 C   0  0  0  0  0  0  0  0  0  0  0  0
    3.0116   45.2461   54.0933 N   0  0  0  0  0  0  0  0  0  0  0  0
    3.5993   46.1242   54.8862 C   0  0  0  0  0  0  0  0  0  0  0  0
    2.9761   46.4094   56.0837 N   0  0  0  0  0  0  0  0  0  0  0  0
    4.7547   46.7221   54.6435 N   0  0  0  0  0  0  0  0  0  0  0  0
    5.3346   46.4198   53.4844 C   0  0  0  0  0  0  0  0  0  0  0  0
    6.5467   47.0642   53.2461 N   0  0  0  0  0  0  0  0  0  0  0  0
    7.8851   46.6532   53.2818 C   0  0  0  0  0  0  0  0  0  0  0  0
    8.8739   47.2708   54.0538 C   0  0  0  0  0  0  0  0  0  0  0  0
   10.2020   46.8316   54.0190 C   0  0  0  0  0  0  0  0  0  0  0  0
   10.5678   45.7675   53.2003 C   0  0  0  0  0  0  0  0  0  0  0  0
    9.6048   45.1460   52.4125 C   0  0  0  0  0  0  0  0  0  0  0  0
    8.2789   45.5895   52.4505 C   0  0  0  0  0  0  0  0  0  0  0  0
    4.8261   45.5524   52.6209 N   0  0  0  0  0  0  0  0  0  0  0  0
    0.8682   44.1270   52.0200 H   0  0  0  0  0  0  0  0  0  0  0  0
    1.5300   42.4937   52.3676 H   0  0  0  0  0  0  0  0  0  0  0  0
    1.6193   43.7830   53.6151 H   0  0  0  0  0  0  0  0  0  0  0  0
    2.9450   44.5170   51.0190 H   0  0  0  0  0  0  0  0  0  0  0  0
    6.0385   41.7271   51.3895 H   0  0  0  0  0  0  0  0  0  0  0  0
    6.9205   40.9205   49.2035 H   0  0  0  0  0  0  0  0  0  0  0  0
    5.5393   41.1587   47.1396 H   0  0  0  0  0  0  0  0  0  0  0  0
    3.2810   42.2049   47.2718 H   0  0  0  0  0  0  0  0  0  0  0  0
    2.3935   43.0080   49.4619 H   0  0  0  0  0  0  0  0  0  0  0  0
    1.9944   46.6001   55.9364 H   0  0  0  0  0  0  0  0  0  0  0  0
    3.5072   47.0873   56.6107 H   0  0  0  0  0  0  0  0  0  0  0  0
    6.3664   47.9718   52.8429 H   0  0  0  0  0  0  0  0  0  0  0  0
    8.6027   48.1180   54.7008 H   0  0  0  0  0  0  0  0  0  0  0  0
   10.9600   47.3295   54.6413 H   0  0  0  0  0  0  0  0  0  0  0  0
   11.6113   45.4202   53.1765 H   0  0  0  0  0  0  0  0  0  0  0  0
    9.8857   44.3063   51.7598 H   0  0  0  0  0  0  0  0  0  0  0  0
    7.5278   45.0956   51.8165 H   0  0  0  0  0  0  0  0  0  0  0  0
  1  2  1  0
  2  3  1  0
  3  4  1  0
  4  5  2  0
  5  6  1  0
  6  7  2  0
  7  8  1  0
  8  9  2  0
  2 10  1  0
 10 11  2  0
 11 12  1  0
 12 13  1  0
 12 14  2  0
 14 15  1  0
 15 16  1  0
 16 17  1  0
 17 18  2  0
 18 19  1  0
 19 20  2  0
 20 21  1  0
 21 22  2  0
 15 23  2  0
  9  4  1  0
 23 10  1  0
 22 17  1  0
  1 24  1  0
  1 25  1  0
  1 26  1  0
  2 27  1  6
  5 28  1  0
  6 29  1  0
  7 30  1  0
  8 31  1  0
  9 32  1  0
 13 33  1  0
 13 34  1  0
 16 35  1  0
 18 36  1  0
 19 37  1  0
 20 38  1  0
 21 39  1  0
 22 40  1  0
M  END
>  <meeko>  (4) 
{"is_sidechain": false}

>  <CID>  (4) 
Z168978470

>  <pose_index>  (4) 
5

>  <docking_score>  (4) 
-8.576

>  <rmsd_to_best_selected>  (4) 
0.8123652678954953

>  <MWT>  (4) 
307.3569999999997

>  <TPSA>  (4) 
85.95

>  <logP>  (4) 
3.3374000000000006

>  <HBD>  (4) 
2

>  <HBA>  (4) 
6

>  <SMILES>  (4) 
[H]c1c([H])c([H])c(OC([H])(c2nc(N([H])[H])nc(N([H])c3c([H])c([H])c([H])c([H])c3[H])n2)C([H])([H])[H])c([H])c1[H]

$$$$
Z168978470_pose6
     RDKit          3D

 40 42  0  0  0  0  0  0  0  0999 V2000
    1.6232   43.6999   52.4894 C   0  0  0  0  0  0  0  0  0  0  0  0
    3.0256   44.0123   51.9681 C   0  0  2  0  0  0  0  0  0  0  0  0
    3.6760   42.7501   51.7440 O   0  0  0  0  0  0  0  0  0  0  0  0
    3.9375   42.3591   50.4609 C   0  0  0  0  0  0  0  0  0  0  0  0
    5.1905   42.7553   49.9849 C   0  0  0  0  0  0  0  0  0  0  0  0
    5.5994   42.4290   48.6900 C   0  0  0  0  0  0  0  0  0  0  0  0
    4.7515   41.7005   47.8598 C   0  0  0  0  0  0  0  0  0  0  0  0
    3.5007   41.3022   48.3258 C   0  0  0  0  0  0  0  0  0  0  0  0
    3.0927   41.6291   49.6242 C   0  0  0  0  0  0  0  0  0  0  0  0
    3.7559   44.8807   52.9816 C   0  0  0  0  0  0  0  0  0  0  0  0
    3.0657   45.8687   53.5517 N   0  0  0  0  0  0  0  0  0  0  0  0
    3.7510   46.5976   54.4159 C   0  0  0  0  0  0  0  0  0  0  0  0
    3.0807   47.6304   55.0392 N   0  0  0  0  0  0  0  0  0  0  0  0
    5.0110   46.3926   54.7595 N   0  0  0  0  0  0  0  0  0  0  0  0
    5.6257   45.3842   54.1471 C   0  0  0  0  0  0  0  0  0  0  0  0
    6.9546   45.1899   54.5192 N   0  0  0  0  0  0  0  0  0  0  0  0
    8.1742   45.6939   54.0526 C   0  0  0  0  0  0  0  0  0  0  0  0
    8.8264   46.8006   54.6031 C   0  0  0  0  0  0  0  0  0  0  0  0
   10.0286   47.2771   54.0676 C   0  0  0  0  0  0  0  0  0  0  0  0
   10.5965   46.6551   52.9598 C   0  0  0  0  0  0  0  0  0  0  0  0
    9.9592   45.5615   52.3847 C   0  0  0  0  0  0  0  0  0  0  0  0
    8.7586   45.0898   52.9255 C   0  0  0  0  0  0  0  0  0  0  0  0
    5.0278   44.5945   53.2665 N   0  0  0  0  0  0  0  0  0  0  0  0
    0.9414   43.5487   51.6395 H   0  0  0  0  0  0  0  0  0  0  0  0
    1.6545   42.7865   53.1014 H   0  0  0  0  0  0  0  0  0  0  0  0
    1.2644   44.5399   53.1024 H   0  0  0  0  0  0  0  0  0  0  0  0
    3.0091   44.5788   51.0253 H   0  0  0  0  0  0  0  0  0  0  0  0
    5.8627   43.3310   50.6381 H   0  0  0  0  0  0  0  0  0  0  0  0
    6.5881   42.7465   48.3271 H   0  0  0  0  0  0  0  0  0  0  0  0
    5.0684   41.4404   46.8390 H   0  0  0  0  0  0  0  0  0  0  0  0
    2.8300   40.7277   47.6699 H   0  0  0  0  0  0  0  0  0  0  0  0
    2.1041   41.3097   49.9857 H   0  0  0  0  0  0  0  0  0  0  0  0
    2.1124   47.6516   54.7514 H   0  0  0  0  0  0  0  0  0  0  0  0
    3.6056   48.4910   54.9667 H   0  0  0  0  0  0  0  0  0  0  0  0
    6.9835   44.6745   55.3863 H   0  0  0  0  0  0  0  0  0  0  0  0
    8.3862   47.3072   55.4746 H   0  0  0  0  0  0  0  0  0  0  0  0
   10.5260   48.1458   54.5237 H   0  0  0  0  0  0  0  0  0  0  0  0
   11.5438   47.0264   52.5417 H   0  0  0  0  0  0  0  0  0  0  0  0
   10.3987   45.0678   51.5055 H   0  0  0  0  0  0  0  0  0  0  0  0
    8.2607   44.2272   52.4586 H   0  0  0  0  0  0  0  0  0  0  0  0
  1  2  1  0
  2  3  1  0
  3  4  1  0
  4  5  2  0
  5  6  1  0
  6  7  2  0
  7  8  1  0
  8  9  2  0
  2 10  1  0
 10 11  2  0
 11 12  1  0
 12 13  1  0
 12 14  2  0
 14 15  1  0
 15 16  1  0
 16 17  1  0
 17 18  2  0
 18 19  1  0
 19 20  2  0
 20 21  1  0
 21 22  2  0
 15 23  2  0
  9  4  1  0
 23 10  1  0
 22 17  1  0
  1 24  1  0
  1 25  1  0
  1 26  1  0
  2 27  1  6
  5 28  1  0
  6 29  1  0
  7 30  1  0
  8 31  1  0
  9 32  1  0
 13 33  1  0
 13 34  1  0
 16 35  1  0
 18 36  1  0
 19 37  1  0
 20 38  1  0
 21 39  1  0
 22 40  1  0
M  END
>  <meeko>  (5) 
{"is_sidechain": false}

>  <CID>  (5) 
Z168978470

>  <pose_index>  (5) 
6

>  <docking_score>  (5) 
-8.339

>  <rmsd_to_best_selected>  (5) 
1.2675857753960875

>  <MWT>  (5) 
307.3569999999997

>  <TPSA>  (5) 
85.95

>  <logP>  (5) 
3.3374000000000006

>  <HBD>  (5) 
2

>  <HBA>  (5) 
6

>  <SMILES>  (5) 
[H]c1c([H])c([H])c(OC([H])(c2nc(N([H])[H])nc(N([H])c3c([H])c([H])c([H])c([H])c3[H])n2)C([H])([H])[H])c([H])c1[H]

$$$$
Z168978470_pose10
     RDKit          3D

 40 42  0  0  0  0  0  0  0  0999 V2000
    1.4247   45.1559   50.4623 C   0  0  0  0  0  0  0  0  0  0  0  0
    2.9267   44.8729   50.4781 C   0  0  2  0  0  0  0  0  0  0  0  0
    3.0839   43.4749   50.7717 O   0  0  0  0  0  0  0  0  0  0  0  0
    4.2982   42.8872   50.5598 C   0  0  0  0  0  0  0  0  0  0  0  0
    4.6965   42.0098   51.5738 C   0  0  0  0  0  0  0  0  0  0  0  0
    5.9162   41.3338   51.4960 C   0  0  0  0  0  0  0  0  0  0  0  0
    6.7497   41.5334   50.3983 C   0  0  0  0  0  0  0  0  0  0  0  0
    6.3615   42.4061   49.3844 C   0  0  0  0  0  0  0  0  0  0  0  0
    5.1384   43.0823   49.4632 C   0  0  0  0  0  0  0  0  0  0  0  0
    3.5961   45.7716   51.5063 C   0  0  0  0  0  0  0  0  0  0  0  0
    2.8226   46.6422   52.1572 N   0  0  0  0  0  0  0  0  0  0  0  0
    3.4558   47.4033   53.0313 C   0  0  0  0  0  0  0  0  0  0  0  0
    2.6999   48.3178   53.7357 N   0  0  0  0  0  0  0  0  0  0  0  0
    4.7467   47.3327   53.3137 N   0  0  0  0  0  0  0  0  0  0  0  0
    5.4466   46.4354   52.6239 C   0  0  0  0  0  0  0  0  0  0  0  0
    6.8040   46.3807   52.9323 N   0  0  0  0  0  0  0  0  0  0  0  0
    7.6084   45.4496   53.5998 C   0  0  0  0  0  0  0  0  0  0  0  0
    7.8767   44.1626   53.1232 C   0  0  0  0  0  0  0  0  0  0  0  0
    8.6616   43.2660   53.8557 C   0  0  0  0  0  0  0  0  0  0  0  0
    9.1862   43.6396   55.0896 C   0  0  0  0  0  0  0  0  0  0  0  0
    8.9222   44.9089   55.5904 C   0  0  0  0  0  0  0  0  0  0  0  0
    8.1372   45.8008   54.8541 C   0  0  0  0  0  0  0  0  0  0  0  0
    4.9044   45.6241   51.7255 N   0  0  0  0  0  0  0  0  0  0  0  0
    0.8749   44.2110   50.3408 H   0  0  0  0  0  0  0  0  0  0  0  0
    1.1313   45.6316   51.4097 H   0  0  0  0  0  0  0  0  0  0  0  0
    1.1872   45.8287   49.6252 H   0  0  0  0  0  0  0  0  0  0  0  0
    3.4071   45.0912   49.5129 H   0  0  0  0  0  0  0  0  0  0  0  0
    4.0413   41.8504   52.4429 H   0  0  0  0  0  0  0  0  0  0  0  0
    6.2176   40.6456   52.2994 H   0  0  0  0  0  0  0  0  0  0  0  0
    7.7115   41.0037   50.3322 H   0  0  0  0  0  0  0  0  0  0  0  0
    7.0196   42.5646   48.5173 H   0  0  0  0  0  0  0  0  0  0  0  0
    4.8388   43.7695   48.6581 H   0  0  0  0  0  0  0  0  0  0  0  0
    3.1262   49.2340   53.7006 H   0  0  0  0  0  0  0  0  0  0  0  0
    2.4556   47.9534   54.6458 H   0  0  0  0  0  0  0  0  0  0  0  0
    7.2854   47.1217   52.4430 H   0  0  0  0  0  0  0  0  0  0  0  0
    7.4625   43.8492   52.1535 H   0  0  0  0  0  0  0  0  0  0  0  0
    8.8650   42.2619   53.4552 H   0  0  0  0  0  0  0  0  0  0  0  0
    9.8053   42.9351   55.6644 H   0  0  0  0  0  0  0  0  0  0  0  0
    9.3309   45.2116   56.5658 H   0  0  0  0  0  0  0  0  0  0  0  0
    7.9286   46.7996   55.2652 H   0  0  0  0  0  0  0  0  0  0  0  0
  1  2  1  0
  2  3  1  0
  3  4  1  0
  4  5  2  0
  5  6  1  0
  6  7  2  0
  7  8  1  0
  8  9  2  0
  2 10  1  0
 10 11  2  0
 11 12  1  0
 12 13  1  0
 12 14  2  0
 14 15  1  0
 15 16  1  0
 16 17  1  0
 17 18  2  0
 18 19  1  0
 19 20  2  0
 20 21  1  0
 21 22  2  0
 15 23  2  0
  9  4  1  0
 23 10  1  0
 22 17  1  0
  1 24  1  0
  1 25  1  0
  1 26  1  0
  2 27  1  6
  5 28  1  0
  6 29  1  0
  7 30  1  0
  8 31  1  0
  9 32  1  0
 13 33  1  0
 13 34  1  0
 16 35  1  0
 18 36  1  0
 19 37  1  0
 20 38  1  0
 21 39  1  0
 22 40  1  0
M  END
>  <meeko>  (6) 
{"is_sidechain": false}

>  <CID>  (6) 
Z168978470

>  <pose_index>  (6) 
10

>  <docking_score>  (6) 
-7.985

>  <rmsd_to_best_selected>  (6) 
1.2708428383455763

>  <MWT>  (6) 
307.3569999999997

>  <TPSA>  (6) 
85.95

>  <logP>  (6) 
3.3374000000000006

>  <HBD>  (6) 
2

>  <HBA>  (6) 
6

>  <SMILES>  (6) 
[H]c1c([H])c([H])c(OC([H])(c2nc(N([H])[H])nc(N([H])c3c([H])c([H])c([H])c([H])c3[H])n2)C([H])([H])[H])c([H])c1[H]

$$$$
