Z1833516258_pose1
     RDKit          3D

 38 41  0  0  0  0  0  0  0  0999 V2000
    7.7680   44.5180   49.4320 C   0  0  0  0  0  0  0  0  0  0  0  0
    7.7460   45.2980   50.6990 C   0  0  0  0  0  0  0  0  0  0  0  0
    8.9690   45.7220   51.2020 N   0  0  0  0  0  0  0  0  0  0  0  0
    8.7940   46.4460   52.2850 C   0  0  0  0  0  0  0  0  0  0  0  0
    9.9080   47.0670   53.0780 C   0  0  0  0  0  0  0  0  0  0  0  0
    9.7140   47.0240   54.5710 C   0  0  0  0  0  0  0  0  0  0  0  0
    9.4980   48.2970   55.3480 C   0  0  0  0  0  0  0  0  0  0  0  0
   10.7870   47.5370   55.4980 C   0  0  0  0  0  0  0  0  0  0  0  0
    7.1620   46.6640   52.7650 S   0  0  0  0  0  0  0  0  0  0  0  0
    6.6430   45.6870   51.4480 C   0  0  0  0  0  0  0  0  0  0  0  0
    5.2220   45.4310   51.2780 C   0  0  0  0  0  0  0  0  0  0  0  0
    4.5350   46.0410   50.4640 O   0  0  0  0  0  0  0  0  0  0  0  0
    4.7270   44.4650   52.1320 N   0  0  0  0  0  0  0  0  0  0  0  0
    3.4190   43.9460   52.2030 C   0  0  0  0  0  0  0  0  0  0  0  0
    2.7990   43.1570   51.2260 C   0  0  0  0  0  0  0  0  0  0  0  0
    1.4900   42.6900   51.4040 C   0  0  0  0  0  0  0  0  0  0  0  0
    0.7510   42.9860   52.5550 C   0  0  0  0  0  0  0  0  0  0  0  0
    1.3880   43.7690   53.5170 C   0  0  0  0  0  0  0  0  0  0  0  0
    0.9890   44.2460   54.7400 N   0  0  0  0  0  0  0  0  0  0  0  0
    2.0230   44.9660   55.2720 C   0  0  0  0  0  0  0  0  0  0  0  0
    3.0660   44.9870   54.4720 N   0  0  0  0  0  0  0  0  0  0  0  0
    2.6850   44.2470   53.3700 C   0  0  0  0  0  0  0  0  0  0  0  0
    7.7983   43.4431   49.6636 H   0  0  0  0  0  0  0  0  0  0  0  0
    6.8632   44.7418   48.8479 H   0  0  0  0  0  0  0  0  0  0  0  0
    8.6588   44.7925   48.8479 H   0  0  0  0  0  0  0  0  0  0  0  0
   10.8393   46.5334   52.8375 H   0  0  0  0  0  0  0  0  0  0  0  0
    9.9354   48.1303   52.7975 H   0  0  0  0  0  0  0  0  0  0  0  0
    9.1688   46.0748   54.4622 H   0  0  0  0  0  0  0  0  0  0  0  0
    9.4882   49.2650   54.8255 H   0  0  0  0  0  0  0  0  0  0  0  0
    8.7263   48.6629   56.0413 H   0  0  0  0  0  0  0  0  0  0  0  0
   11.7195   47.9491   55.0850 H   0  0  0  0  0  0  0  0  0  0  0  0
   11.3479   47.1171   56.3460 H   0  0  0  0  0  0  0  0  0  0  0  0
    5.3380   44.0990   52.8550 H   0  0  0  0  0  0  0  0  0  0  0  0
    3.3467   42.9006   50.3071 H   0  0  0  0  0  0  0  0  0  0  0  0
    1.0305   42.0736   50.6173 H   0  0  0  0  0  0  0  0  0  0  0  0
   -0.2773   42.6206   52.6934 H   0  0  0  0  0  0  0  0  0  0  0  0
    0.0900   44.0930   55.1730 H   0  0  0  0  0  0  0  0  0  0  0  0
    1.9864   45.4668   56.2507 H   0  0  0  0  0  0  0  0  0  0  0  0
  1  2  1  0
  2  3  1  0
  3  4  2  0
  4  5  1  0
  5  6  1  0
  6  7  1  0
  7  8  1  0
  4  9  1  0
  9 10  1  0
 10 11  1  0
 11 12  2  0
 11 13  1  0
 13 14  1  0
 14 15  2  0
 15 16  1  0
 16 17  2  0
 17 18  1  0
 18 19  1  0
 19 20  1  0
 20 21  2  0
 21 22  1  0
 10  2  2  0
 22 14  1  0
  8  6  1  0
 22 18  2  0
  1 23  1  0
  1 24  1  0
  1 25  1  0
  5 26  1  0
  5 27  1  0
  6 28  1  0
  7 29  1  0
  7 30  1  0
  8 31  1  0
  8 32  1  0
 13 33  1  0
 15 34  1  0
 16 35  1  0
 17 36  1  0
 19 37  1  0
 20 38  1  0
M  END
>  <meeko>  (1) 
{"is_sidechain": false}

>  <CID>  (1) 
Z1833516258

>  <pose_index>  (1) 
1

>  <docking_score>  (1) 
-8.259

>  <rmsd_to_best_selected>  (1) 
0.0

>  <MWT>  (1) 
312.3979999999997

>  <TPSA>  (1) 
70.67

>  <logP>  (1) 
3.5326200000000005

>  <HBD>  (1) 
2

>  <HBA>  (1) 
4

>  <SMILES>  (1) 
[H]c1c([H])c([H])c2c(nc([H])n2[H])c1N([H])C(=O)c1sc(C([H])([H])C2([H])C([H])([H])C2([H])[H])nc1C([H])([H])[H]

$$$$
Z1833516258_pose3
     RDKit          3D

 38 41  0  0  0  0  0  0  0  0999 V2000
    7.8884   45.4690   49.4623 C   0  0  0  0  0  0  0  0  0  0  0  0
    7.7187   45.9132   50.8733 C   0  0  0  0  0  0  0  0  0  0  0  0
    8.6723   46.7855   51.3802 N   0  0  0  0  0  0  0  0  0  0  0  0
    8.3649   47.1375   52.6096 C   0  0  0  0  0  0  0  0  0  0  0  0
    9.1804   48.0774   53.4498 C   0  0  0  0  0  0  0  0  0  0  0  0
   10.4299   47.4707   54.0335 C   0  0  0  0  0  0  0  0  0  0  0  0
   10.4712   46.0058   54.3856 C   0  0  0  0  0  0  0  0  0  0  0  0
   10.4695   47.0392   55.4777 C   0  0  0  0  0  0  0  0  0  0  0  0
    6.9202   46.4500   53.2287 S   0  0  0  0  0  0  0  0  0  0  0  0
    6.7019   45.5836   51.7601 C   0  0  0  0  0  0  0  0  0  0  0  0
    5.5528   44.7022   51.6266 C   0  0  0  0  0  0  0  0  0  0  0  0
    5.6283   43.5966   51.0980 O   0  0  0  0  0  0  0  0  0  0  0  0
    4.3819   45.2394   52.1230 N   0  0  0  0  0  0  0  0  0  0  0  0
    3.1063   44.6437   52.1947 C   0  0  0  0  0  0  0  0  0  0  0  0
    2.1444   44.6501   51.1777 C   0  0  0  0  0  0  0  0  0  0  0  0
    0.9054   44.0208   51.3569 C   0  0  0  0  0  0  0  0  0  0  0  0
    0.5782   43.3612   52.5476 C   0  0  0  0  0  0  0  0  0  0  0  0
    1.5515   43.3626   53.5448 C   0  0  0  0  0  0  0  0  0  0  0  0
    1.5880   42.8297   54.8099 N   0  0  0  0  0  0  0  0  0  0  0  0
    2.8041   43.1286   55.3600 C   0  0  0  0  0  0  0  0  0  0  0  0
    3.5578   43.8191   54.5337 N   0  0  0  0  0  0  0  0  0  0  0  0
    2.7894   43.9766   53.3972 C   0  0  0  0  0  0  0  0  0  0  0  0
    8.0470   44.3808   49.4370 H   0  0  0  0  0  0  0  0  0  0  0  0
    6.9853   45.7214   48.8873 H   0  0  0  0  0  0  0  0  0  0  0  0
    8.7583   45.9767   49.0202 H   0  0  0  0  0  0  0  0  0  0  0  0
    9.4742   48.9319   52.8225 H   0  0  0  0  0  0  0  0  0  0  0  0
    8.5461   48.3661   54.3009 H   0  0  0  0  0  0  0  0  0  0  0  0
   11.0363   48.1394   53.4050 H   0  0  0  0  0  0  0  0  0  0  0  0
    9.5839   45.3762   54.2232 H   0  0  0  0  0  0  0  0  0  0  0  0
   11.1211   45.1599   54.1169 H   0  0  0  0  0  0  0  0  0  0  0  0
    9.5811   47.1655   56.1139 H   0  0  0  0  0  0  0  0  0  0  0  0
   11.1176   47.2620   56.3382 H   0  0  0  0  0  0  0  0  0  0  0  0
    4.3855   46.2060   52.4323 H   0  0  0  0  0  0  0  0  0  0  0  0
    2.3641   45.1555   50.2257 H   0  0  0  0  0  0  0  0  0  0  0  0
    0.1696   44.0457   50.5396 H   0  0  0  0  0  0  0  0  0  0  0  0
   -0.3950   42.8682   52.6885 H   0  0  0  0  0  0  0  0  0  0  0  0
    0.8486   42.3094   55.2559 H   0  0  0  0  0  0  0  0  0  0  0  0
    3.1139   42.8274   56.3716 H   0  0  0  0  0  0  0  0  0  0  0  0
  1  2  1  0
  2  3  1  0
  3  4  2  0
  4  5  1  0
  5  6  1  0
  6  7  1  0
  7  8  1  0
  4  9  1  0
  9 10  1  0
 10 11  1  0
 11 12  2  0
 11 13  1  0
 13 14  1  0
 14 15  2  0
 15 16  1  0
 16 17  2  0
 17 18  1  0
 18 19  1  0
 19 20  1  0
 20 21  2  0
 21 22  1  0
 10  2  2  0
 22 14  1  0
  8  6  1  0
 22 18  2  0
  1 23  1  0
  1 24  1  0
  1 25  1  0
  5 26  1  0
  5 27  1  0
  6 28  1  0
  7 29  1  0
  7 30  1  0
  8 31  1  0
  8 32  1  0
 13 33  1  0
 15 34  1  0
 16 35  1  0
 17 36  1  0
 19 37  1  0
 20 38  1  0
M  END
>  <meeko>  (2) 
{"is_sidechain": false}

>  <CID>  (2) 
Z1833516258

>  <pose_index>  (2) 
3

>  <docking_score>  (2) 
-8.124

>  <rmsd_to_best_selected>  (2) 
1.4191277090447556

>  <MWT>  (2) 
312.3979999999997

>  <TPSA>  (2) 
70.67

>  <logP>  (2) 
3.5326200000000005

>  <HBD>  (2) 
2

>  <HBA>  (2) 
4

>  <SMILES>  (2) 
[H]c1c([H])c([H])c2c(nc([H])n2[H])c1N([H])C(=O)c1sc(C([H])([H])C2([H])C([H])([H])C2([H])[H])nc1C([H])([H])[H]

$$$$
Z1833516258_pose6
     RDKit          3D

 38 41  0  0  0  0  0  0  0  0999 V2000
    7.3793   45.1112   50.2452 C   0  0  0  0  0  0  0  0  0  0  0  0
    7.2880   45.9252   51.4878 C   0  0  0  0  0  0  0  0  0  0  0  0
    8.4779   46.4067   52.0174 N   0  0  0  0  0  0  0  0  0  0  0  0
    8.2397   47.1535   53.0736 C   0  0  0  0  0  0  0  0  0  0  0  0
    9.3042   47.8363   53.8841 C   0  0  0  0  0  0  0  0  0  0  0  0
   10.4853   46.9657   54.2265 C   0  0  0  0  0  0  0  0  0  0  0  0
   11.3739   47.3127   55.3937 C   0  0  0  0  0  0  0  0  0  0  0  0
   11.8911   47.4535   53.9883 C   0  0  0  0  0  0  0  0  0  0  0  0
    6.5855   47.3267   53.4913 S   0  0  0  0  0  0  0  0  0  0  0  0
    6.1468   46.2952   52.1878 C   0  0  0  0  0  0  0  0  0  0  0  0
    4.7416   45.9836   51.9782 C   0  0  0  0  0  0  0  0  0  0  0  0
    3.9065   46.8468   51.7232 O   0  0  0  0  0  0  0  0  0  0  0  0
    4.4449   44.6430   52.1193 N   0  0  0  0  0  0  0  0  0  0  0  0
    3.2051   43.9977   51.9413 C   0  0  0  0  0  0  0  0  0  0  0  0
    2.6731   43.5750   50.7173 C   0  0  0  0  0  0  0  0  0  0  0  0
    1.4265   42.9365   50.6575 C   0  0  0  0  0  0  0  0  0  0  0  0
    0.6663   42.6938   51.8075 C   0  0  0  0  0  0  0  0  0  0  0  0
    1.2154   43.1186   53.0162 C   0  0  0  0  0  0  0  0  0  0  0  0
    0.7734   43.0513   54.3138 N   0  0  0  0  0  0  0  0  0  0  0  0
    1.7225   43.6238   55.1153 C   0  0  0  0  0  0  0  0  0  0  0  0
    2.7504   44.0576   54.4203 N   0  0  0  0  0  0  0  0  0  0  0  0
    2.4495   43.7531   53.1077 C   0  0  0  0  0  0  0  0  0  0  0  0
    7.1720   44.0570   50.4814 H   0  0  0  0  0  0  0  0  0  0  0  0
    6.6426   45.4747   49.5137 H   0  0  0  0  0  0  0  0  0  0  0  0
    8.3907   45.2001   49.8221 H   0  0  0  0  0  0  0  0  0  0  0  0
    9.6698   48.7014   53.3114 H   0  0  0  0  0  0  0  0  0  0  0  0
    8.8368   48.1183   54.8391 H   0  0  0  0  0  0  0  0  0  0  0  0
    9.9077   46.0804   53.9222 H   0  0  0  0  0  0  0  0  0  0  0  0
   11.1659   48.2097   55.9955 H   0  0  0  0  0  0  0  0  0  0  0  0
   11.7120   46.7845   56.2974 H   0  0  0  0  0  0  0  0  0  0  0  0
   12.0614   48.4534   53.5627 H   0  0  0  0  0  0  0  0  0  0  0  0
   12.7642   47.0708   53.4393 H   0  0  0  0  0  0  0  0  0  0  0  0
    5.1723   44.0186   52.4495 H   0  0  0  0  0  0  0  0  0  0  0  0
    3.2406   43.7459   49.7907 H   0  0  0  0  0  0  0  0  0  0  0  0
    1.0350   42.6177   49.6802 H   0  0  0  0  0  0  0  0  0  0  0  0
   -0.3126   42.1942   51.7599 H   0  0  0  0  0  0  0  0  0  0  0  0
   -0.0984   42.6496   54.6227 H   0  0  0  0  0  0  0  0  0  0  0  0
    1.6361   43.7106   56.2085 H   0  0  0  0  0  0  0  0  0  0  0  0
  1  2  1  0
  2  3  1  0
  3  4  2  0
  4  5  1  0
  5  6  1  0
  6  7  1  0
  7  8  1  0
  4  9  1  0
  9 10  1  0
 10 11  1  0
 11 12  2  0
 11 13  1  0
 13 14  1  0
 14 15  2  0
 15 16  1  0
 16 17  2  0
 17 18  1  0
 18 19  1  0
 19 20  1  0
 20 21  2  0
 21 22  1  0
 10  2  2  0
 22 14  1  0
  8  6  1  0
 22 18  2  0
  1 23  1  0
  1 24  1  0
  1 25  1  0
  5 26  1  0
  5 27  1  0
  6 28  1  0
  7 29  1  0
  7 30  1  0
  8 31  1  0
  8 32  1  0
 13 33  1  0
 15 34  1  0
 16 35  1  0
 17 36  1  0
 19 37  1  0
 20 38  1  0
M  END
>  <meeko>  (3) 
{"is_sidechain": false}

>  <CID>  (3) 
Z1833516258

>  <pose_index>  (3) 
6

>  <docking_score>  (3) 
-7.731

>  <rmsd_to_best_selected>  (3) 
1.2433545848896674

>  <MWT>  (3) 
312.3979999999997

>  <TPSA>  (3) 
70.67

>  <logP>  (3) 
3.5326200000000005

>  <HBD>  (3) 
2

>  <HBA>  (3) 
4

>  <SMILES>  (3) 
[H]c1c([H])c([H])c2c(nc([H])n2[H])c1N([H])C(=O)c1sc(C([H])([H])C2([H])C([H])([H])C2([H])[H])nc1C([H])([H])[H]

$$$$
Z1833516258_pose8
     RDKit          3D

 38 41  0  0  0  0  0  0  0  0999 V2000
    7.8555   43.6260   51.7469 C   0  0  0  0  0  0  0  0  0  0  0  0
    7.5900   45.0167   52.2060 C   0  0  0  0  0  0  0  0  0  0  0  0
    8.6391   45.6935   52.8143 N   0  0  0  0  0  0  0  0  0  0  0  0
    8.2807   46.9233   53.1125 C   0  0  0  0  0  0  0  0  0  0  0  0
    9.1784   47.9296   53.7735 C   0  0  0  0  0  0  0  0  0  0  0  0
   10.5876   47.4524   54.0078 C   0  0  0  0  0  0  0  0  0  0  0  0
   11.4831   48.1734   54.9829 C   0  0  0  0  0  0  0  0  0  0  0  0
   11.7610   48.2557   53.5075 C   0  0  0  0  0  0  0  0  0  0  0  0
    6.6738   47.3427   52.6820 S   0  0  0  0  0  0  0  0  0  0  0  0
    6.4172   45.7510   52.0835 C   0  0  0  0  0  0  0  0  0  0  0  0
    5.1137   45.4049   51.5399 C   0  0  0  0  0  0  0  0  0  0  0  0
    4.6523   45.9463   50.5402 O   0  0  0  0  0  0  0  0  0  0  0  0
    4.4485   44.4387   52.2689 N   0  0  0  0  0  0  0  0  0  0  0  0
    3.1996   43.8447   52.0001 C   0  0  0  0  0  0  0  0  0  0  0  0
    2.9129   42.9986   50.9229 C   0  0  0  0  0  0  0  0  0  0  0  0
    1.6309   42.4583   50.7540 C   0  0  0  0  0  0  0  0  0  0  0  0
    0.5897   42.7368   51.6475 C   0  0  0  0  0  0  0  0  0  0  0  0
    0.8980   43.5785   52.7159 C   0  0  0  0  0  0  0  0  0  0  0  0
    0.1547   44.0589   53.7650 N   0  0  0  0  0  0  0  0  0  0  0  0
    0.9653   44.8508   54.5304 C   0  0  0  0  0  0  0  0  0  0  0  0
    2.1847   44.9144   54.0455 N   0  0  0  0  0  0  0  0  0  0  0  0
    2.1589   44.1281   52.9106 C   0  0  0  0  0  0  0  0  0  0  0  0
    8.8293   43.2917   52.1341 H   0  0  0  0  0  0  0  0  0  0  0  0
    7.0641   42.9594   52.1199 H   0  0  0  0  0  0  0  0  0  0  0  0
    7.8694   43.5992   50.6473 H   0  0  0  0  0  0  0  0  0  0  0  0
    9.2205   48.8240   53.1346 H   0  0  0  0  0  0  0  0  0  0  0  0
    8.7471   48.1287   54.7656 H   0  0  0  0  0  0  0  0  0  0  0  0
   10.2462   46.4142   53.8832 H   0  0  0  0  0  0  0  0  0  0  0  0
   11.1102   49.0567   55.5222 H   0  0  0  0  0  0  0  0  0  0  0  0
   12.0653   47.8782   55.8683 H   0  0  0  0  0  0  0  0  0  0  0  0
   11.5913   49.1991   52.9679 H   0  0  0  0  0  0  0  0  0  0  0  0
   12.6305   48.0456   52.8675 H   0  0  0  0  0  0  0  0  0  0  0  0
    4.8515   44.1338   53.1491 H   0  0  0  0  0  0  0  0  0  0  0  0
    3.7044   42.7545   50.1990 H   0  0  0  0  0  0  0  0  0  0  0  0
    1.4376   41.7975   49.8961 H   0  0  0  0  0  0  0  0  0  0  0  0
   -0.4172   42.3145   51.5140 H   0  0  0  0  0  0  0  0  0  0  0  0
   -0.8190   43.8624   53.9416 H   0  0  0  0  0  0  0  0  0  0  0  0
    0.6362   45.3716   55.4417 H   0  0  0  0  0  0  0  0  0  0  0  0
  1  2  1  0
  2  3  1  0
  3  4  2  0
  4  5  1  0
  5  6  1  0
  6  7  1  0
  7  8  1  0
  4  9  1  0
  9 10  1  0
 10 11  1  0
 11 12  2  0
 11 13  1  0
 13 14  1  0
 14 15  2  0
 15 16  1  0
 16 17  2  0
 17 18  1  0
 18 19  1  0
 19 20  1  0
 20 21  2  0
 21 22  1  0
 10  2  2  0
 22 14  1  0
  8  6  1  0
 22 18  2  0
  1 23  1  0
  1 24  1  0
  1 25  1  0
  5 26  1  0
  5 27  1  0
  6 28  1  0
  7 29  1  0
  7 30  1  0
  8 31  1  0
  8 32  1  0
 13 33  1  0
 15 34  1  0
 16 35  1  0
 17 36  1  0
 19 37  1  0
 20 38  1  0
M  END
>  <meeko>  (4) 
{"is_sidechain": false}

>  <CID>  (4) 
Z1833516258

>  <pose_index>  (4) 
8

>  <docking_score>  (4) 
-7.462

>  <rmsd_to_best_selected>  (4) 
1.5696041150155235

>  <MWT>  (4) 
312.3979999999997

>  <TPSA>  (4) 
70.67

>  <logP>  (4) 
3.5326200000000005

>  <HBD>  (4) 
2

>  <HBA>  (4) 
4

>  <SMILES>  (4) 
[H]c1c([H])c([H])c2c(nc([H])n2[H])c1N([H])C(=O)c1sc(C([H])([H])C2([H])C([H])([H])C2([H])[H])nc1C([H])([H])[H]

$$$$
Z1833516258_pose10
     RDKit          3D

 38 41  0  0  0  0  0  0  0  0999 V2000
    6.8070   46.7964   50.1626 C   0  0  0  0  0  0  0  0  0  0  0  0
    7.1245   46.3731   51.5536 C   0  0  0  0  0  0  0  0  0  0  0  0
    8.1781   47.0195   52.1854 N   0  0  0  0  0  0  0  0  0  0  0  0
    8.3053   46.5883   53.4217 C   0  0  0  0  0  0  0  0  0  0  0  0
    9.3438   47.0833   54.3878 C   0  0  0  0  0  0  0  0  0  0  0  0
   10.6853   47.3771   53.7688 C   0  0  0  0  0  0  0  0  0  0  0  0
   11.9381   46.7638   54.3422 C   0  0  0  0  0  0  0  0  0  0  0  0
   11.6892   48.2393   54.4910 C   0  0  0  0  0  0  0  0  0  0  0  0
    7.1762   45.3896   53.8992 S   0  0  0  0  0  0  0  0  0  0  0  0
    6.4807   45.4160   52.3272 C   0  0  0  0  0  0  0  0  0  0  0  0
    5.3729   44.5214   52.0320 C   0  0  0  0  0  0  0  0  0  0  0  0
    5.5411   43.3813   51.6108 O   0  0  0  0  0  0  0  0  0  0  0  0
    4.1319   45.0874   52.2453 N   0  0  0  0  0  0  0  0  0  0  0  0
    2.8618   44.4934   52.1050 C   0  0  0  0  0  0  0  0  0  0  0  0
    1.8779   44.8789   51.1869 C   0  0  0  0  0  0  0  0  0  0  0  0
    0.6461   44.2119   51.1308 C   0  0  0  0  0  0  0  0  0  0  0  0
    0.3491   43.1388   51.9803 C   0  0  0  0  0  0  0  0  0  0  0  0
    1.3448   42.7689   52.8825 C   0  0  0  0  0  0  0  0  0  0  0  0
    1.4126   41.7890   53.8421 N   0  0  0  0  0  0  0  0  0  0  0  0
    2.6389   41.8678   54.4429 C   0  0  0  0  0  0  0  0  0  0  0  0
    3.3694   42.8355   53.9345 N   0  0  0  0  0  0  0  0  0  0  0  0
    2.5755   43.4096   52.9617 C   0  0  0  0  0  0  0  0  0  0  0  0
    7.4907   47.6032   49.8598 H   0  0  0  0  0  0  0  0  0  0  0  0
    6.9263   45.9401   49.4825 H   0  0  0  0  0  0  0  0  0  0  0  0
    5.7694   47.1588   50.1174 H   0  0  0  0  0  0  0  0  0  0  0  0
    8.9691   48.0083   54.8503 H   0  0  0  0  0  0  0  0  0  0  0  0
    9.5057   46.2732   55.1141 H   0  0  0  0  0  0  0  0  0  0  0  0
   10.2117   47.4003   52.7763 H   0  0  0  0  0  0  0  0  0  0  0  0
   11.8752   46.1044   55.2204 H   0  0  0  0  0  0  0  0  0  0  0  0
   12.7577   46.1504   53.9399 H   0  0  0  0  0  0  0  0  0  0  0  0
   11.4444   48.6587   55.4780 H   0  0  0  0  0  0  0  0  0  0  0  0
   12.2518   49.1513   54.2424 H   0  0  0  0  0  0  0  0  0  0  0  0
    4.0839   46.0743   52.4781 H   0  0  0  0  0  0  0  0  0  0  0  0
    2.0738   45.7161   50.5008 H   0  0  0  0  0  0  0  0  0  0  0  0
   -0.1074   44.5401   50.3997 H   0  0  0  0  0  0  0  0  0  0  0  0
   -0.6178   42.6162   51.9377 H   0  0  0  0  0  0  0  0  0  0  0  0
    0.6854   41.1262   54.0652 H   0  0  0  0  0  0  0  0  0  0  0  0
    2.9731   41.2026   55.2527 H   0  0  0  0  0  0  0  0  0  0  0  0
  1  2  1  0
  2  3  1  0
  3  4  2  0
  4  5  1  0
  5  6  1  0
  6  7  1  0
  7  8  1  0
  4  9  1  0
  9 10  1  0
 10 11  1  0
 11 12  2  0
 11 13  1  0
 13 14  1  0
 14 15  2  0
 15 16  1  0
 16 17  2  0
 17 18  1  0
 18 19  1  0
 19 20  1  0
 20 21  2  0
 21 22  1  0
 10  2  2  0
 22 14  1  0
  8  6  1  0
 22 18  2  0
  1 23  1  0
  1 24  1  0
  1 25  1  0
  5 26  1  0
  5 27  1  0
  6 28  1  0
  7 29  1  0
  7 30  1  0
  8 31  1  0
  8 32  1  0
 13 33  1  0
 15 34  1  0
 16 35  1  0
 17 36  1  0
 19 37  1  0
 20 38  1  0
M  END
>  <meeko>  (5) 
{"is_sidechain": false}

>  <CID>  (5) 
Z1833516258

>  <pose_index>  (5) 
10

>  <docking_score>  (5) 
-7.295

>  <rmsd_to_best_selected>  (5) 
1.6157679481171123

>  <MWT>  (5) 
312.3979999999997

>  <TPSA>  (5) 
70.67

>  <logP>  (5) 
3.5326200000000005

>  <HBD>  (5) 
2

>  <HBA>  (5) 
4

>  <SMILES>  (5) 
[H]c1c([H])c([H])c2c(nc([H])n2[H])c1N([H])C(=O)c1sc(C([H])([H])C2([H])C([H])([H])C2([H])[H])nc1C([H])([H])[H]

$$$$
