Z1887562379_pose1
     RDKit          3D

 43 46  0  0  0  0  0  0  0  0999 V2000
    9.8300   47.1520   52.4830 C   0  0  0  0  0  0  0  0  0  0  0  0
    9.5610   46.7830   53.7970 C   0  0  0  0  0  0  0  0  0  0  0  0
    8.2440   46.5680   54.2110 C   0  0  0  0  0  0  0  0  0  0  0  0
    7.1810   46.7090   53.3030 C   0  0  0  0  0  0  0  0  0  0  0  0
    5.8500   46.4750   53.7430 N   0  0  0  0  0  0  0  0  0  0  0  0
    5.1250   47.2790   54.5930 C   0  0  0  0  0  0  0  0  0  0  0  0
    3.9240   46.7880   54.7880 N   0  0  0  0  0  0  0  0  0  0  0  0
    3.8340   45.6260   54.0870 N   0  0  0  0  0  0  0  0  0  0  0  0
    4.9860   45.4220   53.4750 C   0  0  0  0  0  0  0  0  0  0  0  0
    5.3040   44.1570   52.7600 C   0  0  0  0  0  0  0  0  0  0  0  0
    4.8750   44.2270   51.2980 N   0  0  1  0  0  4  0  0  0  0  0  0
    6.0170   44.2400   50.3180 C   0  0  0  0  0  0  0  0  0  0  0  0
    6.1590   42.8950   49.6040 C   0  0  0  0  0  0  0  0  0  0  0  0
    5.7430   41.7110   50.4680 C   0  0  0  0  0  0  0  0  0  0  0  0
    4.3010   41.8380   50.9770 C   0  0  0  0  0  0  0  0  0  0  0  0
    3.7600   43.2700   50.9050 C   0  0  1  0  0  0  0  0  0  0  0  0
    2.4770   43.4910   51.6650 C   0  0  0  0  0  0  0  0  0  0  0  0
    2.0720   42.7070   52.7060 N   0  0  0  0  0  0  0  0  0  0  0  0
    0.9140   43.2270   53.0430 C   0  0  0  0  0  0  0  0  0  0  0  0
    0.6410   44.2920   52.2420 N   0  0  0  0  0  0  0  0  0  0  0  0
    1.6480   44.5060   51.3670 N   0  0  0  0  0  0  0  0  0  0  0  0
    7.4610   47.0990   51.9860 C   0  0  0  0  0  0  0  0  0  0  0  0
    8.7820   47.3150   51.5810 C   0  0  0  0  0  0  0  0  0  0  0  0
   10.8681   47.3146   52.1574 H   0  0  0  0  0  0  0  0  0  0  0  0
   10.3876   46.6601   54.5122 H   0  0  0  0  0  0  0  0  0  0  0  0
    8.0380   46.2866   55.2543 H   0  0  0  0  0  0  0  0  0  0  0  0
    5.5015   48.2074   55.0473 H   0  0  0  0  0  0  0  0  0  0  0  0
    6.3888   43.9809   52.8076 H   0  0  0  0  0  0  0  0  0  0  0  0
    4.7561   43.3356   53.2449 H   0  0  0  0  0  0  0  0  0  0  0  0
    4.4270   45.1580   51.2460 H   0  0  0  0  0  0  0  0  0  0  0  0
    5.8361   45.0249   49.5689 H   0  0  0  0  0  0  0  0  0  0  0  0
    6.9461   44.4353   50.8736 H   0  0  0  0  0  0  0  0  0  0  0  0
    5.5284   42.9091   48.7028 H   0  0  0  0  0  0  0  0  0  0  0  0
    7.2238   42.7645   49.3606 H   0  0  0  0  0  0  0  0  0  0  0  0
    5.8274   40.7909   49.8711 H   0  0  0  0  0  0  0  0  0  0  0  0
    6.4075   41.6846   51.3442 H   0  0  0  0  0  0  0  0  0  0  0  0
    3.6561   41.1894   50.3660 H   0  0  0  0  0  0  0  0  0  0  0  0
    4.3005   41.5410   52.0361 H   0  0  0  0  0  0  0  0  0  0  0  0
    3.4586   43.4735   49.8668 H   0  0  0  0  0  0  0  0  0  0  0  0
    0.2640   42.8576   53.8499 H   0  0  0  0  0  0  0  0  0  0  0  0
   -0.1750   44.8980   52.2370 H   0  0  0  0  0  0  0  0  0  0  0  0
    6.6386   47.2356   51.2684 H   0  0  0  0  0  0  0  0  0  0  0  0
    8.9942   47.6153   50.5443 H   0  0  0  0  0  0  0  0  0  0  0  0
  1  2  2  0
  2  3  1  0
  3  4  2  0
  4  5  1  0
  5  6  1  0
  6  7  2  0
  7  8  1  0
  8  9  2  0
  9 10  1  0
 10 11  1  0
 11 12  1  0
 12 13  1  0
 13 14  1  0
 14 15  1  0
 15 16  1  0
 16 17  1  0
 17 18  1  0
 18 19  2  0
 19 20  1  0
 20 21  1  0
  4 22  1  0
 22 23  2  0
 23  1  1  0
  9  5  1  0
 16 11  1  0
 21 17  2  0
  1 24  1  0
  2 25  1  0
  3 26  1  0
  6 27  1  0
 10 28  1  0
 10 29  1  0
 11 30  1  1
 12 31  1  0
 12 32  1  0
 13 33  1  0
 13 34  1  0
 14 35  1  0
 14 36  1  0
 15 37  1  0
 15 38  1  0
 16 39  1  6
 19 40  1  0
 20 41  1  0
 22 42  1  0
 23 43  1  0
M  CHG  1  11   1
M  END
>  <meeko>  (1) 
{"is_sidechain": false}

>  <CID>  (1) 
Z1887562379

>  <pose_index>  (1) 
1

>  <docking_score>  (1) 
-8.346

>  <rmsd_to_best_selected>  (1) 
0.0

>  <MWT>  (1) 
310.38499999999965

>  <TPSA>  (1) 
76.72

>  <logP>  (1) 
0.6954999999999993

>  <HBD>  (1) 
2

>  <HBA>  (1) 
5

>  <SMILES>  (1) 
[H]c1c([H])c([H])c(-n2c([H])nnc2C([H])([H])[N+]2([H])C([H])([H])C([H])([H])C([H])([H])C([H])([H])C2([H])c2nc([H])n([H])n2)c([H])c1[H]

$$$$
Z1887562379_pose3
     RDKit          3D

 43 46  0  0  0  0  0  0  0  0999 V2000
    9.7958   46.6105   52.0702 C   0  0  0  0  0  0  0  0  0  0  0  0
    9.3412   45.6054   52.9194 C   0  0  0  0  0  0  0  0  0  0  0  0
    8.0402   45.6489   53.4246 C   0  0  0  0  0  0  0  0  0  0  0  0
    7.1739   46.6978   53.0731 C   0  0  0  0  0  0  0  0  0  0  0  0
    5.8503   46.7164   53.5911 N   0  0  0  0  0  0  0  0  0  0  0  0
    5.2807   47.7347   54.3223 C   0  0  0  0  0  0  0  0  0  0  0  0
    4.0410   47.4453   54.6358 N   0  0  0  0  0  0  0  0  0  0  0  0
    3.7656   46.2099   54.1378 N   0  0  0  0  0  0  0  0  0  0  0  0
    4.8466   45.7593   53.5292 C   0  0  0  0  0  0  0  0  0  0  0  0
    4.9631   44.3668   53.0200 C   0  0  0  0  0  0  0  0  0  0  0  0
    4.7854   44.3150   51.5060 N   0  0  1  0  0  4  0  0  0  0  0  0
    6.0743   44.3695   50.7310 C   0  0  0  0  0  0  0  0  0  0  0  0
    6.4359   43.0021   50.1477 C   0  0  0  0  0  0  0  0  0  0  0  0
    5.9665   41.8381   51.0124 C   0  0  0  0  0  0  0  0  0  0  0  0
    4.4537   41.8717   51.2651 C   0  0  0  0  0  0  0  0  0  0  0  0
    3.8287   43.2467   51.0025 C   0  0  1  0  0  0  0  0  0  0  0  0
    2.4219   43.4014   51.5215 C   0  0  0  0  0  0  0  0  0  0  0  0
    1.8077   44.6080   51.6897 N   0  0  0  0  0  0  0  0  0  0  0  0
    0.6325   44.2842   52.1787 C   0  0  0  0  0  0  0  0  0  0  0  0
    0.5406   42.9309   52.2870 N   0  0  0  0  0  0  0  0  0  0  0  0
    1.6661   42.3351   51.8378 N   0  0  0  0  0  0  0  0  0  0  0  0
    7.6473   47.7158   52.2322 C   0  0  0  0  0  0  0  0  0  0  0  0
    8.9531   47.6647   51.7328 C   0  0  0  0  0  0  0  0  0  0  0  0
   10.8185   46.5712   51.6670 H   0  0  0  0  0  0  0  0  0  0  0  0
   10.0086   44.7749   53.1931 H   0  0  0  0  0  0  0  0  0  0  0  0
    7.6910   44.8563   54.1026 H   0  0  0  0  0  0  0  0  0  0  0  0
    5.7958   48.6646   54.6050 H   0  0  0  0  0  0  0  0  0  0  0  0
    5.9571   43.9726   53.2781 H   0  0  0  0  0  0  0  0  0  0  0  0
    4.1719   43.7595   53.4840 H   0  0  0  0  0  0  0  0  0  0  0  0
    4.2859   45.2005   51.3149 H   0  0  0  0  0  0  0  0  0  0  0  0
    5.9666   45.0918   49.9084 H   0  0  0  0  0  0  0  0  0  0  0  0
    6.8774   44.6752   51.4177 H   0  0  0  0  0  0  0  0  0  0  0  0
    5.9699   42.9108   49.1555 H   0  0  0  0  0  0  0  0  0  0  0  0
    7.5333   42.9487   50.0950 H   0  0  0  0  0  0  0  0  0  0  0  0
    6.2191   40.8958   50.5042 H   0  0  0  0  0  0  0  0  0  0  0  0
    6.4716   41.9180   51.9863 H   0  0  0  0  0  0  0  0  0  0  0  0
    3.9722   41.1365   50.6036 H   0  0  0  0  0  0  0  0  0  0  0  0
    4.2942   41.6374   52.3280 H   0  0  0  0  0  0  0  0  0  0  0  0
    3.6955   43.3638   49.9169 H   0  0  0  0  0  0  0  0  0  0  0  0
   -0.1566   44.9978   52.4580 H   0  0  0  0  0  0  0  0  0  0  0  0
   -0.2282   42.3667   52.6396 H   0  0  0  0  0  0  0  0  0  0  0  0
    6.9901   48.5563   51.9646 H   0  0  0  0  0  0  0  0  0  0  0  0
    9.3160   48.4633   51.0691 H   0  0  0  0  0  0  0  0  0  0  0  0
  1  2  2  0
  2  3  1  0
  3  4  2  0
  4  5  1  0
  5  6  1  0
  6  7  2  0
  7  8  1  0
  8  9  2  0
  9 10  1  0
 10 11  1  0
 11 12  1  0
 12 13  1  0
 13 14  1  0
 14 15  1  0
 15 16  1  0
 16 17  1  0
 17 18  1  0
 18 19  2  0
 19 20  1  0
 20 21  1  0
  4 22  1  0
 22 23  2  0
 23  1  1  0
  9  5  1  0
 16 11  1  0
 21 17  2  0
  1 24  1  0
  2 25  1  0
  3 26  1  0
  6 27  1  0
 10 28  1  0
 10 29  1  0
 11 30  1  6
 12 31  1  0
 12 32  1  0
 13 33  1  0
 13 34  1  0
 14 35  1  0
 14 36  1  0
 15 37  1  0
 15 38  1  0
 16 39  1  6
 19 40  1  0
 20 41  1  0
 22 42  1  0
 23 43  1  0
M  CHG  1  11   1
M  END
>  <meeko>  (2) 
{"is_sidechain": false}

>  <CID>  (2) 
Z1887562379

>  <pose_index>  (2) 
3

>  <docking_score>  (2) 
-8.128

>  <rmsd_to_best_selected>  (2) 
1.0827350105354119

>  <MWT>  (2) 
310.38499999999965

>  <TPSA>  (2) 
76.72

>  <logP>  (2) 
0.6954999999999993

>  <HBD>  (2) 
2

>  <HBA>  (2) 
5

>  <SMILES>  (2) 
[H]c1c([H])c([H])c(-n2c([H])nnc2C([H])([H])[N+]2([H])C([H])([H])C([H])([H])C([H])([H])C([H])([H])C2([H])c2nc([H])n([H])n2)c([H])c1[H]

$$$$
Z1887562379_pose6
     RDKit          3D

 43 46  0  0  0  0  0  0  0  0999 V2000
    9.6077   46.5432   51.4695 C   0  0  0  0  0  0  0  0  0  0  0  0
    8.7820   47.6080   51.1195 C   0  0  0  0  0  0  0  0  0  0  0  0
    7.5264   47.7480   51.7153 C   0  0  0  0  0  0  0  0  0  0  0  0
    7.0900   46.8256   52.6811 C   0  0  0  0  0  0  0  0  0  0  0  0
    5.8130   46.9931   53.2814 N   0  0  0  0  0  0  0  0  0  0  0  0
    5.3519   48.1347   53.8985 C   0  0  0  0  0  0  0  0  0  0  0  0
    4.1265   47.9651   54.3345 N   0  0  0  0  0  0  0  0  0  0  0  0
    3.7534   46.6913   54.0379 N   0  0  0  0  0  0  0  0  0  0  0  0
    4.7614   46.0979   53.4253 C   0  0  0  0  0  0  0  0  0  0  0  0
    4.7702   44.6438   53.1123 C   0  0  0  0  0  0  0  0  0  0  0  0
    4.3500   44.3878   51.6679 N   0  0  1  0  0  4  0  0  0  0  0  0
    5.3110   44.9213   50.6413 C   0  0  0  0  0  0  0  0  0  0  0  0
    6.1179   43.7972   49.9902 C   0  0  0  0  0  0  0  0  0  0  0  0
    6.3807   42.6258   50.9295 C   0  0  0  0  0  0  0  0  0  0  0  0
    5.0850   42.0283   51.4934 C   0  0  0  0  0  0  0  0  0  0  0  0
    3.8829   42.9716   51.3723 C   0  0  1  0  0  0  0  0  0  0  0  0
    2.6778   42.5516   52.1753 C   0  0  0  0  0  0  0  0  0  0  0  0
    1.5009   43.2419   52.1872 N   0  0  0  0  0  0  0  0  0  0  0  0
    0.7559   42.5552   53.0234 C   0  0  0  0  0  0  0  0  0  0  0  0
    1.4554   41.4838   53.4837 N   0  0  0  0  0  0  0  0  0  0  0  0
    2.6863   41.4378   52.9280 N   0  0  0  0  0  0  0  0  0  0  0  0
    7.9213   45.7475   53.0135 C   0  0  0  0  0  0  0  0  0  0  0  0
    9.1760   45.6132   52.4096 C   0  0  0  0  0  0  0  0  0  0  0  0
   10.5987   46.4376   51.0039 H   0  0  0  0  0  0  0  0  0  0  0  0
    9.1192   48.3410   50.3719 H   0  0  0  0  0  0  0  0  0  0  0  0
    6.8750   48.5860   51.4265 H   0  0  0  0  0  0  0  0  0  0  0  0
    5.9323   49.0624   54.0104 H   0  0  0  0  0  0  0  0  0  0  0  0
    5.7857   44.2498   53.2658 H   0  0  0  0  0  0  0  0  0  0  0  0
    4.0540   44.1399   53.7780 H   0  0  0  0  0  0  0  0  0  0  0  0
    3.4856   44.9507   51.5896 H   0  0  0  0  0  0  0  0  0  0  0  0
    4.7436   45.4514   49.8622 H   0  0  0  0  0  0  0  0  0  0  0  0
    6.0127   45.6014   51.1464 H   0  0  0  0  0  0  0  0  0  0  0  0
    5.5605   43.4271   49.1171 H   0  0  0  0  0  0  0  0  0  0  0  0
    7.0951   44.2165   49.7088 H   0  0  0  0  0  0  0  0  0  0  0  0
    6.9196   41.8428   50.3759 H   0  0  0  0  0  0  0  0  0  0  0  0
    6.9743   43.0007   51.7763 H   0  0  0  0  0  0  0  0  0  0  0  0
    4.8593   41.1020   50.9447 H   0  0  0  0  0  0  0  0  0  0  0  0
    5.2493   41.8437   52.5653 H   0  0  0  0  0  0  0  0  0  0  0  0
    3.5084   42.9233   50.3391 H   0  0  0  0  0  0  0  0  0  0  0  0
   -0.2761   42.8082   53.3077 H   0  0  0  0  0  0  0  0  0  0  0  0
    1.1703   40.7697   54.1480 H   0  0  0  0  0  0  0  0  0  0  0  0
    7.5860   45.0043   53.7518 H   0  0  0  0  0  0  0  0  0  0  0  0
    9.8250   44.7672   52.6798 H   0  0  0  0  0  0  0  0  0  0  0  0
  1  2  2  0
  2  3  1  0
  3  4  2  0
  4  5  1  0
  5  6  1  0
  6  7  2  0
  7  8  1  0
  8  9  2  0
  9 10  1  0
 10 11  1  0
 11 12  1  0
 12 13  1  0
 13 14  1  0
 14 15  1  0
 15 16  1  0
 16 17  1  0
 17 18  1  0
 18 19  2  0
 19 20  1  0
 20 21  1  0
  4 22  1  0
 22 23  2  0
 23  1  1  0
  9  5  1  0
 16 11  1  0
 21 17  2  0
  1 24  1  0
  2 25  1  0
  3 26  1  0
  6 27  1  0
 10 28  1  0
 10 29  1  0
 11 30  1  6
 12 31  1  0
 12 32  1  0
 13 33  1  0
 13 34  1  0
 14 35  1  0
 14 36  1  0
 15 37  1  0
 15 38  1  0
 16 39  1  6
 19 40  1  0
 20 41  1  0
 22 42  1  0
 23 43  1  0
M  CHG  1  11   1
M  END
>  <meeko>  (3) 
{"is_sidechain": false}

>  <CID>  (3) 
Z1887562379

>  <pose_index>  (3) 
6

>  <docking_score>  (3) 
-7.991

>  <rmsd_to_best_selected>  (3) 
1.436822507245855

>  <MWT>  (3) 
310.38499999999965

>  <TPSA>  (3) 
76.72

>  <logP>  (3) 
0.6954999999999993

>  <HBD>  (3) 
2

>  <HBA>  (3) 
5

>  <SMILES>  (3) 
[H]c1c([H])c([H])c(-n2c([H])nnc2C([H])([H])[N+]2([H])C([H])([H])C([H])([H])C([H])([H])C([H])([H])C2([H])c2nc([H])n([H])n2)c([H])c1[H]

$$$$
Z1887562379_pose8
     RDKit          3D

 43 46  0  0  0  0  0  0  0  0999 V2000
    9.6452   47.0948   53.0623 C   0  0  0  0  0  0  0  0  0  0  0  0
    9.0016   48.3241   52.9557 C   0  0  0  0  0  0  0  0  0  0  0  0
    7.6232   48.3782   52.7332 C   0  0  0  0  0  0  0  0  0  0  0  0
    6.8728   47.1954   52.6282 C   0  0  0  0  0  0  0  0  0  0  0  0
    5.4704   47.2740   52.4125 N   0  0  0  0  0  0  0  0  0  0  0  0
    4.7329   48.4310   52.2942 C   0  0  0  0  0  0  0  0  0  0  0  0
    3.4674   48.1567   52.0845 N   0  0  0  0  0  0  0  0  0  0  0  0
    3.3318   46.8037   52.0843 N   0  0  0  0  0  0  0  0  0  0  0  0
    4.5196   46.2690   52.2973 C   0  0  0  0  0  0  0  0  0  0  0  0
    4.7166   44.8140   52.5354 C   0  0  0  0  0  0  0  0  0  0  0  0
    4.5815   44.0200   51.2397 N   0  0  1  0  0  4  0  0  0  0  0  0
    5.7645   44.1369   50.3173 C   0  0  0  0  0  0  0  0  0  0  0  0
    6.6093   42.8620   50.3233 C   0  0  0  0  0  0  0  0  0  0  0  0
    6.5978   42.1424   51.6666 C   0  0  0  0  0  0  0  0  0  0  0  0
    5.1785   41.7836   52.1249 C   0  0  0  0  0  0  0  0  0  0  0  0
    4.0908   42.5894   51.4065 C   0  0  1  0  0  0  0  0  0  0  0  0
    2.7236   42.4879   52.0321 C   0  0  0  0  0  0  0  0  0  0  0  0
    1.9814   41.3420   52.0428 N   0  0  0  0  0  0  0  0  0  0  0  0
    0.8736   41.7061   52.6488 C   0  0  0  0  0  0  0  0  0  0  0  0
    0.9547   43.0173   53.0007 N   0  0  0  0  0  0  0  0  0  0  0  0
    2.1498   43.5373   52.6449 N   0  0  0  0  0  0  0  0  0  0  0  0
    7.5334   45.9621   52.7185 C   0  0  0  0  0  0  0  0  0  0  0  0
    8.9147   45.9170   52.9378 C   0  0  0  0  0  0  0  0  0  0  0  0
   10.7292   47.0543   53.2446 H   0  0  0  0  0  0  0  0  0  0  0  0
    9.5796   49.2556   53.0467 H   0  0  0  0  0  0  0  0  0  0  0  0
    7.1225   49.3531   52.6398 H   0  0  0  0  0  0  0  0  0  0  0  0
    5.1485   49.4470   52.3659 H   0  0  0  0  0  0  0  0  0  0  0  0
    5.7213   44.6514   52.9528 H   0  0  0  0  0  0  0  0  0  0  0  0
    3.9442   44.4682   53.2381 H   0  0  0  0  0  0  0  0  0  0  0  0
    3.7903   44.4965   50.7730 H   0  0  0  0  0  0  0  0  0  0  0  0
    5.4034   44.3213   49.2947 H   0  0  0  0  0  0  0  0  0  0  0  0
    6.3934   44.9689   50.6670 H   0  0  0  0  0  0  0  0  0  0  0  0
    6.2161   42.1782   49.5566 H   0  0  0  0  0  0  0  0  0  0  0  0
    7.6490   43.1571   50.1186 H   0  0  0  0  0  0  0  0  0  0  0  0
    7.1848   41.2164   51.5765 H   0  0  0  0  0  0  0  0  0  0  0  0
    7.0305   42.8222   52.4153 H   0  0  0  0  0  0  0  0  0  0  0  0
    5.0078   40.7145   51.9300 H   0  0  0  0  0  0  0  0  0  0  0  0
    5.1100   42.0240   53.1961 H   0  0  0  0  0  0  0  0  0  0  0  0
    3.9306   42.1444   50.4134 H   0  0  0  0  0  0  0  0  0  0  0  0
    0.0120   41.0502   52.8421 H   0  0  0  0  0  0  0  0  0  0  0  0
    0.2647   43.5990   53.4683 H   0  0  0  0  0  0  0  0  0  0  0  0
    6.9639   45.0266   52.6165 H   0  0  0  0  0  0  0  0  0  0  0  0
    9.4256   44.9457   53.0122 H   0  0  0  0  0  0  0  0  0  0  0  0
  1  2  2  0
  2  3  1  0
  3  4  2  0
  4  5  1  0
  5  6  1  0
  6  7  2  0
  7  8  1  0
  8  9  2  0
  9 10  1  0
 10 11  1  0
 11 12  1  0
 12 13  1  0
 13 14  1  0
 14 15  1  0
 15 16  1  0
 16 17  1  0
 17 18  1  0
 18 19  2  0
 19 20  1  0
 20 21  1  0
  4 22  1  0
 22 23  2  0
 23  1  1  0
  9  5  1  0
 16 11  1  0
 21 17  2  0
  1 24  1  0
  2 25  1  0
  3 26  1  0
  6 27  1  0
 10 28  1  0
 10 29  1  0
 11 30  1  6
 12 31  1  0
 12 32  1  0
 13 33  1  0
 13 34  1  0
 14 35  1  0
 14 36  1  0
 15 37  1  0
 15 38  1  0
 16 39  1  6
 19 40  1  0
 20 41  1  0
 22 42  1  0
 23 43  1  0
M  CHG  1  11   1
M  END
>  <meeko>  (4) 
{"is_sidechain": false}

>  <CID>  (4) 
Z1887562379

>  <pose_index>  (4) 
8

>  <docking_score>  (4) 
-7.733

>  <rmsd_to_best_selected>  (4) 
1.4129143704350389

>  <MWT>  (4) 
310.38499999999965

>  <TPSA>  (4) 
76.72

>  <logP>  (4) 
0.6954999999999993

>  <HBD>  (4) 
2

>  <HBA>  (4) 
5

>  <SMILES>  (4) 
[H]c1c([H])c([H])c(-n2c([H])nnc2C([H])([H])[N+]2([H])C([H])([H])C([H])([H])C([H])([H])C([H])([H])C2([H])c2nc([H])n([H])n2)c([H])c1[H]

$$$$
Z1887562379_pose10
     RDKit          3D

 43 46  0  0  0  0  0  0  0  0999 V2000
    9.7041   46.6926   51.9200 C   0  0  0  0  0  0  0  0  0  0  0  0
    8.8506   47.4579   51.1299 C   0  0  0  0  0  0  0  0  0  0  0  0
    7.5069   47.6005   51.4822 C   0  0  0  0  0  0  0  0  0  0  0  0
    7.0059   46.9853   52.6421 C   0  0  0  0  0  0  0  0  0  0  0  0
    5.6378   47.1516   52.9866 N   0  0  0  0  0  0  0  0  0  0  0  0
    5.0354   48.3307   53.3656 C   0  0  0  0  0  0  0  0  0  0  0  0
    3.7587   48.1461   53.6011 N   0  0  0  0  0  0  0  0  0  0  0  0
    3.4881   46.8281   53.4078 N   0  0  0  0  0  0  0  0  0  0  0  0
    4.6087   46.2229   53.0587 C   0  0  0  0  0  0  0  0  0  0  0  0
    4.7212   44.7446   52.9394 C   0  0  0  0  0  0  0  0  0  0  0  0
    4.3600   44.2758   51.5330 N   0  0  1  0  0  4  0  0  0  0  0  0
    5.3319   44.7081   50.4686 C   0  0  0  0  0  0  0  0  0  0  0  0
    6.2051   43.5438   49.9996 C   0  0  0  0  0  0  0  0  0  0  0  0
    6.4853   42.5239   51.0980 C   0  0  0  0  0  0  0  0  0  0  0  0
    5.1970   41.9500   51.7027 C   0  0  0  0  0  0  0  0  0  0  0  0
    3.9618   42.8121   51.4214 C   0  0  1  0  0  0  0  0  0  0  0  0
    2.7499   42.4509   52.2417 C   0  0  0  0  0  0  0  0  0  0  0  0
    2.7278   41.4312   53.1479 N   0  0  0  0  0  0  0  0  0  0  0  0
    1.4934   41.4521   53.5972 C   0  0  0  0  0  0  0  0  0  0  0  0
    0.8048   42.4569   52.9921 N   0  0  0  0  0  0  0  0  0  0  0  0
    1.5996   43.1393   52.1388 N   0  0  0  0  0  0  0  0  0  0  0  0
    7.8688   46.2017   53.4209 C   0  0  0  0  0  0  0  0  0  0  0  0
    9.2138   46.0621   53.0587 C   0  0  0  0  0  0  0  0  0  0  0  0
   10.7637   46.5869   51.6443 H   0  0  0  0  0  0  0  0  0  0  0  0
    9.2359   47.9517   50.2256 H   0  0  0  0  0  0  0  0  0  0  0  0
    6.8361   48.1982   50.8475 H   0  0  0  0  0  0  0  0  0  0  0  0
    5.5547   49.2959   53.4582 H   0  0  0  0  0  0  0  0  0  0  0  0
    5.7555   44.4441   53.1633 H   0  0  0  0  0  0  0  0  0  0  0  0
    4.0208   44.2832   53.6512 H   0  0  0  0  0  0  0  0  0  0  0  0
    3.4768   44.7833   51.3542 H   0  0  0  0  0  0  0  0  0  0  0  0
    4.7690   45.1013   49.6092 H   0  0  0  0  0  0  0  0  0  0  0  0
    5.9880   45.4816   50.8944 H   0  0  0  0  0  0  0  0  0  0  0  0
    5.6922   43.0335   49.1711 H   0  0  0  0  0  0  0  0  0  0  0  0
    7.1728   43.9647   49.6893 H   0  0  0  0  0  0  0  0  0  0  0  0
    7.0745   41.6983   50.6721 H   0  0  0  0  0  0  0  0  0  0  0  0
    7.0345   43.0369   51.9013 H   0  0  0  0  0  0  0  0  0  0  0  0
    5.0281   40.9487   51.2797 H   0  0  0  0  0  0  0  0  0  0  0  0
    5.3331   41.9201   52.7938 H   0  0  0  0  0  0  0  0  0  0  0  0
    3.6238   42.6071   50.3950 H   0  0  0  0  0  0  0  0  0  0  0  0
    1.0800   40.7625   54.3479 H   0  0  0  0  0  0  0  0  0  0  0  0
   -0.1681   42.7282   53.1101 H   0  0  0  0  0  0  0  0  0  0  0  0
    7.4877   45.6948   54.3197 H   0  0  0  0  0  0  0  0  0  0  0  0
    9.8865   45.4505   53.6779 H   0  0  0  0  0  0  0  0  0  0  0  0
  1  2  2  0
  2  3  1  0
  3  4  2  0
  4  5  1  0
  5  6  1  0
  6  7  2  0
  7  8  1  0
  8  9  2  0
  9 10  1  0
 10 11  1  0
 11 12  1  0
 12 13  1  0
 13 14  1  0
 14 15  1  0
 15 16  1  0
 16 17  1  0
 17 18  1  0
 18 19  2  0
 19 20  1  0
 20 21  1  0
  4 22  1  0
 22 23  2  0
 23  1  1  0
  9  5  1  0
 16 11  1  0
 21 17  2  0
  1 24  1  0
  2 25  1  0
  3 26  1  0
  6 27  1  0
 10 28  1  0
 10 29  1  0
 11 30  1  6
 12 31  1  0
 12 32  1  0
 13 33  1  0
 13 34  1  0
 14 35  1  0
 14 36  1  0
 15 37  1  0
 15 38  1  0
 16 39  1  6
 19 40  1  0
 20 41  1  0
 22 42  1  0
 23 43  1  0
M  CHG  1  11   1
M  END
>  <meeko>  (5) 
{"is_sidechain": false}

>  <CID>  (5) 
Z1887562379

>  <pose_index>  (5) 
10

>  <docking_score>  (5) 
-7.646

>  <rmsd_to_best_selected>  (5) 
1.1206531044285868

>  <MWT>  (5) 
310.38499999999965

>  <TPSA>  (5) 
76.72

>  <logP>  (5) 
0.6954999999999993

>  <HBD>  (5) 
2

>  <HBA>  (5) 
5

>  <SMILES>  (5) 
[H]c1c([H])c([H])c(-n2c([H])nnc2C([H])([H])[N+]2([H])C([H])([H])C([H])([H])C([H])([H])C([H])([H])C2([H])c2nc([H])n([H])n2)c([H])c1[H]

$$$$
