Z1883550081_pose2
     RDKit          3D

 39 42  0  0  0  0  0  0  0  0999 V2000
   10.3580   45.9533   53.1390 C   0  0  0  0  0  0  0  0  0  0  0  0
    8.9317   46.3431   53.3819 C   0  0  0  0  0  0  0  0  0  0  0  0
    7.9845   45.5129   52.8855 N   0  0  0  0  0  0  0  0  0  0  0  0
    6.6737   45.7860   53.1065 C   0  0  0  0  0  0  0  0  0  0  0  0
    5.7436   44.8956   52.5494 N   0  0  0  0  0  0  0  0  0  0  0  0
    5.6782   44.4230   51.2233 C   0  0  0  0  0  0  0  0  0  0  0  0
    6.7684   44.4188   50.3527 C   0  0  0  0  0  0  0  0  0  0  0  0
    6.6366   43.9653   49.0307 C   0  0  0  0  0  0  0  0  0  0  0  0
    5.4116   43.5136   48.5359 C   0  0  0  0  0  0  0  0  0  0  0  0
    5.2151   43.0548   47.2312 N   0  0  0  0  0  0  0  0  0  0  0  0
    5.4106   41.8331   46.5928 C   0  0  0  0  0  0  0  0  0  0  0  0
    6.3032   41.6769   45.6035 N   0  0  0  0  0  0  0  0  0  0  0  0
    6.4117   40.4549   45.0518 C   0  0  0  0  0  0  0  0  0  0  0  0
    5.6637   39.3755   45.4461 C   0  0  0  0  0  0  0  0  0  0  0  0
    4.7771   39.6258   46.4624 C   0  0  0  0  0  0  0  0  0  0  0  0
    4.6338   40.8320   47.0438 N   0  0  0  0  0  0  0  0  0  0  0  0
    4.3143   43.5427   49.4096 C   0  0  0  0  0  0  0  0  0  0  0  0
    4.4425   43.9962   50.7282 C   0  0  0  0  0  0  0  0  0  0  0  0
    6.3527   46.9547   53.8152 C   0  0  0  0  0  0  0  0  0  0  0  0
    5.1697   47.6450   54.2109 C   0  0  0  0  0  0  0  0  0  0  0  0
    5.5503   48.7737   54.9068 C   0  0  0  0  0  0  0  0  0  0  0  0
    6.9212   48.7987   54.9384 N   0  0  0  0  0  0  0  0  0  0  0  0
    7.4191   47.7131   54.2711 C   0  0  0  0  0  0  0  0  0  0  0  0
    8.7238   47.4592   54.1045 N   0  0  0  0  0  0  0  0  0  0  0  0
   11.0030   46.8380   53.2447 H   0  0  0  0  0  0  0  0  0  0  0  0
   10.6594   45.1902   53.8717 H   0  0  0  0  0  0  0  0  0  0  0  0
   10.4586   45.5455   52.1224 H   0  0  0  0  0  0  0  0  0  0  0  0
    4.8273   45.2028   52.8652 H   0  0  0  0  0  0  0  0  0  0  0  0
    7.7462   44.7763   50.7076 H   0  0  0  0  0  0  0  0  0  0  0  0
    7.5168   43.9658   48.3709 H   0  0  0  0  0  0  0  0  0  0  0  0
    4.8216   43.7044   46.5681 H   0  0  0  0  0  0  0  0  0  0  0  0
    7.1403   40.3138   44.2399 H   0  0  0  0  0  0  0  0  0  0  0  0
    5.7668   38.3834   44.9824 H   0  0  0  0  0  0  0  0  0  0  0  0
    4.1496   38.7968   46.8217 H   0  0  0  0  0  0  0  0  0  0  0  0
    3.3319   43.2017   49.0510 H   0  0  0  0  0  0  0  0  0  0  0  0
    3.5591   44.0170   51.3832 H   0  0  0  0  0  0  0  0  0  0  0  0
    4.1364   47.3329   53.9988 H   0  0  0  0  0  0  0  0  0  0  0  0
    4.8764   49.5186   55.3551 H   0  0  0  0  0  0  0  0  0  0  0  0
    7.4988   49.5063   55.3676 H   0  0  0  0  0  0  0  0  0  0  0  0
  1  2  1  0
  2  3  2  0
  3  4  1  0
  4  5  1  0
  5  6  1  0
  6  7  2  0
  7  8  1  0
  8  9  2  0
  9 10  1  0
 10 11  1  0
 11 12  2  0
 12 13  1  0
 13 14  2  0
 14 15  1  0
 15 16  2  0
  9 17  1  0
 17 18  2  0
  4 19  2  0
 19 20  1  0
 20 21  2  0
 21 22  1  0
 22 23  1  0
 23 24  2  0
 24  2  1  0
 18  6  1  0
 23 19  1  0
 16 11  1  0
  1 25  1  0
  1 26  1  0
  1 27  1  0
  5 28  1  0
  7 29  1  0
  8 30  1  0
 10 31  1  0
 13 32  1  0
 14 33  1  0
 15 34  1  0
 17 35  1  0
 18 36  1  0
 20 37  1  0
 21 38  1  0
 22 39  1  0
M  END
>  <meeko>  (1) 
{"is_sidechain": false}

>  <CID>  (1) 
Z1883550081

>  <pose_index>  (1) 
2

>  <docking_score>  (1) 
-9.003

>  <rmsd_to_best_selected>  (1) 
0.0

>  <MWT>  (1) 
317.3559999999997

>  <TPSA>  (1) 
91.41000000000001

>  <logP>  (1) 
3.543520000000001

>  <HBD>  (1) 
3

>  <HBA>  (1) 
6

>  <SMILES>  (1) 
[H]c1nc(N([H])c2c([H])c([H])c(N([H])c3nc(C([H])([H])[H])nc4c3c([H])c([H])n4[H])c([H])c2[H])nc([H])c1[H]

$$$$
Z1883550081_pose3
     RDKit          3D

 39 42  0  0  0  0  0  0  0  0999 V2000
   10.4464   47.0867   52.9658 C   0  0  0  0  0  0  0  0  0  0  0  0
    8.9881   46.9712   53.2872 C   0  0  0  0  0  0  0  0  0  0  0  0
    8.3507   45.8711   52.8236 N   0  0  0  0  0  0  0  0  0  0  0  0
    7.0389   45.6849   53.1157 C   0  0  0  0  0  0  0  0  0  0  0  0
    6.4343   44.5341   52.5872 N   0  0  0  0  0  0  0  0  0  0  0  0
    6.1708   44.2314   51.2365 C   0  0  0  0  0  0  0  0  0  0  0  0
    5.3935   45.0386   50.4050 C   0  0  0  0  0  0  0  0  0  0  0  0
    5.1374   44.6706   49.0746 C   0  0  0  0  0  0  0  0  0  0  0  0
    5.6401   43.4834   48.5391 C   0  0  0  0  0  0  0  0  0  0  0  0
    5.4186   43.0601   47.2260 N   0  0  0  0  0  0  0  0  0  0  0  0
    5.3660   41.8165   46.6026 C   0  0  0  0  0  0  0  0  0  0  0  0
    6.4652   41.1947   46.1512 N   0  0  0  0  0  0  0  0  0  0  0  0
    6.3035   39.9956   45.5610 C   0  0  0  0  0  0  0  0  0  0  0  0
    5.0849   39.3877   45.4018 C   0  0  0  0  0  0  0  0  0  0  0  0
    4.0167   40.0941   45.8921 C   0  0  0  0  0  0  0  0  0  0  0  0
    4.1298   41.2961   46.4901 N   0  0  0  0  0  0  0  0  0  0  0  0
    6.4017   42.6660   49.3872 C   0  0  0  0  0  0  0  0  0  0  0  0
    6.6570   43.0303   50.7157 C   0  0  0  0  0  0  0  0  0  0  0  0
    6.3817   46.6751   53.8641 C   0  0  0  0  0  0  0  0  0  0  0  0
    5.0587   46.9244   54.3333 C   0  0  0  0  0  0  0  0  0  0  0  0
    5.0731   48.1127   55.0322 C   0  0  0  0  0  0  0  0  0  0  0  0
    6.3555   48.5989   54.9947 N   0  0  0  0  0  0  0  0  0  0  0  0
    7.1523   47.7474   54.2811 C   0  0  0  0  0  0  0  0  0  0  0  0
    8.4552   47.9498   54.0435 N   0  0  0  0  0  0  0  0  0  0  0  0
   11.0398   46.7858   53.8418 H   0  0  0  0  0  0  0  0  0  0  0  0
   10.6878   46.4308   52.1164 H   0  0  0  0  0  0  0  0  0  0  0  0
   10.6826   48.1285   52.7033 H   0  0  0  0  0  0  0  0  0  0  0  0
    5.6146   44.3504   53.1616 H   0  0  0  0  0  0  0  0  0  0  0  0
    4.9753   45.9772   50.7977 H   0  0  0  0  0  0  0  0  0  0  0  0
    4.5279   45.3316   48.4408 H   0  0  0  0  0  0  0  0  0  0  0  0
    5.2229   43.7715   46.5391 H   0  0  0  0  0  0  0  0  0  0  0  0
    7.1973   39.4754   45.1862 H   0  0  0  0  0  0  0  0  0  0  0  0
    4.9726   38.4067   44.9171 H   0  0  0  0  0  0  0  0  0  0  0  0
    3.0129   39.6556   45.7917 H   0  0  0  0  0  0  0  0  0  0  0  0
    6.8070   41.7191   49.0011 H   0  0  0  0  0  0  0  0  0  0  0  0
    7.2487   42.3610   51.3574 H   0  0  0  0  0  0  0  0  0  0  0  0
    4.1814   46.2820   54.1671 H   0  0  0  0  0  0  0  0  0  0  0  0
    4.2130   48.5850   55.5293 H   0  0  0  0  0  0  0  0  0  0  0  0
    6.6834   49.4593   55.4091 H   0  0  0  0  0  0  0  0  0  0  0  0
  1  2  1  0
  2  3  2  0
  3  4  1  0
  4  5  1  0
  5  6  1  0
  6  7  2  0
  7  8  1  0
  8  9  2  0
  9 10  1  0
 10 11  1  0
 11 12  2  0
 12 13  1  0
 13 14  2  0
 14 15  1  0
 15 16  2  0
  9 17  1  0
 17 18  2  0
  4 19  2  0
 19 20  1  0
 20 21  2  0
 21 22  1  0
 22 23  1  0
 23 24  2  0
 24  2  1  0
 18  6  1  0
 23 19  1  0
 16 11  1  0
  1 25  1  0
  1 26  1  0
  1 27  1  0
  5 28  1  0
  7 29  1  0
  8 30  1  0
 10 31  1  0
 13 32  1  0
 14 33  1  0
 15 34  1  0
 17 35  1  0
 18 36  1  0
 20 37  1  0
 21 38  1  0
 22 39  1  0
M  END
>  <meeko>  (2) 
{"is_sidechain": false}

>  <CID>  (2) 
Z1883550081

>  <pose_index>  (2) 
3

>  <docking_score>  (2) 
-8.53

>  <rmsd_to_best_selected>  (2) 
1.2111340130413752

>  <MWT>  (2) 
317.3559999999997

>  <TPSA>  (2) 
91.41000000000001

>  <logP>  (2) 
3.543520000000001

>  <HBD>  (2) 
3

>  <HBA>  (2) 
6

>  <SMILES>  (2) 
[H]c1nc(N([H])c2c([H])c([H])c(N([H])c3nc(C([H])([H])[H])nc4c3c([H])c([H])n4[H])c([H])c2[H])nc([H])c1[H]

$$$$
Z1883550081_pose5
     RDKit          3D

 39 42  0  0  0  0  0  0  0  0999 V2000
   10.4767   47.0238   54.3246 C   0  0  0  0  0  0  0  0  0  0  0  0
    9.0418   47.0467   53.8959 C   0  0  0  0  0  0  0  0  0  0  0  0
    8.7876   46.7083   52.6096 N   0  0  0  0  0  0  0  0  0  0  0  0
    7.5051   46.6685   52.1701 C   0  0  0  0  0  0  0  0  0  0  0  0
    7.3136   46.3292   50.8211 N   0  0  0  0  0  0  0  0  0  0  0  0
    6.7545   45.1484   50.2914 C   0  0  0  0  0  0  0  0  0  0  0  0
    5.3810   44.9158   50.2128 C   0  0  0  0  0  0  0  0  0  0  0  0
    4.8812   43.7062   49.7042 C   0  0  0  0  0  0  0  0  0  0  0  0
    5.7350   42.6920   49.2703 C   0  0  0  0  0  0  0  0  0  0  0  0
    5.2999   41.4674   48.7585 N   0  0  0  0  0  0  0  0  0  0  0  0
    4.9499   41.0139   47.4896 C   0  0  0  0  0  0  0  0  0  0  0  0
    3.7006   41.1141   47.0137 N   0  0  0  0  0  0  0  0  0  0  0  0
    3.4675   40.6431   45.7739 C   0  0  0  0  0  0  0  0  0  0  0  0
    4.4347   40.0743   44.9860 C   0  0  0  0  0  0  0  0  0  0  0  0
    5.6815   40.0135   45.5516 C   0  0  0  0  0  0  0  0  0  0  0  0
    5.9607   40.4716   46.7874 N   0  0  0  0  0  0  0  0  0  0  0  0
    7.1146   42.9244   49.3730 C   0  0  0  0  0  0  0  0  0  0  0  0
    7.6165   44.1290   49.8818 C   0  0  0  0  0  0  0  0  0  0  0  0
    6.4872   47.0214   53.0687 C   0  0  0  0  0  0  0  0  0  0  0  0
    5.0696   47.1762   53.0347 C   0  0  0  0  0  0  0  0  0  0  0  0
    4.6539   47.5574   54.2931 C   0  0  0  0  0  0  0  0  0  0  0  0
    5.7679   47.6505   55.0866 N   0  0  0  0  0  0  0  0  0  0  0  0
    6.8836   47.3418   54.3559 C   0  0  0  0  0  0  0  0  0  0  0  0
    8.1334   47.3593   54.8391 N   0  0  0  0  0  0  0  0  0  0  0  0
   10.6728   46.1071   54.9001 H   0  0  0  0  0  0  0  0  0  0  0  0
   11.1252   47.0449   53.4363 H   0  0  0  0  0  0  0  0  0  0  0  0
   10.6859   47.9026   54.9523 H   0  0  0  0  0  0  0  0  0  0  0  0
    8.1798   46.5618   50.3412 H   0  0  0  0  0  0  0  0  0  0  0  0
    4.6795   45.6913   50.5542 H   0  0  0  0  0  0  0  0  0  0  0  0
    3.7932   43.5551   49.6467 H   0  0  0  0  0  0  0  0  0  0  0  0
    5.2308   40.6962   49.4049 H   0  0  0  0  0  0  0  0  0  0  0  0
    2.4464   40.7187   45.3717 H   0  0  0  0  0  0  0  0  0  0  0  0
    4.2254   39.6950   43.9749 H   0  0  0  0  0  0  0  0  0  0  0  0
    6.4979   39.5667   44.9652 H   0  0  0  0  0  0  0  0  0  0  0  0
    7.8175   42.1436   49.0469 H   0  0  0  0  0  0  0  0  0  0  0  0
    8.7042   44.2740   49.9598 H   0  0  0  0  0  0  0  0  0  0  0  0
    4.4223   47.0193   52.1593 H   0  0  0  0  0  0  0  0  0  0  0  0
    3.6167   47.7515   54.6038 H   0  0  0  0  0  0  0  0  0  0  0  0
    5.7917   47.9171   56.0600 H   0  0  0  0  0  0  0  0  0  0  0  0
  1  2  1  0
  2  3  2  0
  3  4  1  0
  4  5  1  0
  5  6  1  0
  6  7  2  0
  7  8  1  0
  8  9  2  0
  9 10  1  0
 10 11  1  0
 11 12  2  0
 12 13  1  0
 13 14  2  0
 14 15  1  0
 15 16  2  0
  9 17  1  0
 17 18  2  0
  4 19  2  0
 19 20  1  0
 20 21  2  0
 21 22  1  0
 22 23  1  0
 23 24  2  0
 24  2  1  0
 18  6  1  0
 23 19  1  0
 16 11  1  0
  1 25  1  0
  1 26  1  0
  1 27  1  0
  5 28  1  0
  7 29  1  0
  8 30  1  0
 10 31  1  0
 13 32  1  0
 14 33  1  0
 15 34  1  0
 17 35  1  0
 18 36  1  0
 20 37  1  0
 21 38  1  0
 22 39  1  0
M  END
>  <meeko>  (3) 
{"is_sidechain": false}

>  <CID>  (3) 
Z1883550081

>  <pose_index>  (3) 
5

>  <docking_score>  (3) 
-8.486

>  <rmsd_to_best_selected>  (3) 
1.8636984583076914

>  <MWT>  (3) 
317.3559999999997

>  <TPSA>  (3) 
91.41000000000001

>  <logP>  (3) 
3.543520000000001

>  <HBD>  (3) 
3

>  <HBA>  (3) 
6

>  <SMILES>  (3) 
[H]c1nc(N([H])c2c([H])c([H])c(N([H])c3nc(C([H])([H])[H])nc4c3c([H])c([H])n4[H])c([H])c2[H])nc([H])c1[H]

$$$$
Z1883550081_pose6
     RDKit          3D

 39 42  0  0  0  0  0  0  0  0999 V2000
   10.6910   47.4882   53.8342 C   0  0  0  0  0  0  0  0  0  0  0  0
    9.2374   47.1655   53.6679 C   0  0  0  0  0  0  0  0  0  0  0  0
    8.9417   45.9396   53.1774 N   0  0  0  0  0  0  0  0  0  0  0  0
    7.6431   45.5692   53.0418 C   0  0  0  0  0  0  0  0  0  0  0  0
    7.4069   44.2920   52.5093 N   0  0  0  0  0  0  0  0  0  0  0  0
    6.7584   43.9590   51.3033 C   0  0  0  0  0  0  0  0  0  0  0  0
    7.2653   44.2771   50.0429 C   0  0  0  0  0  0  0  0  0  0  0  0
    6.5576   43.9482   48.8755 C   0  0  0  0  0  0  0  0  0  0  0  0
    5.3219   43.3026   48.9317 C   0  0  0  0  0  0  0  0  0  0  0  0
    4.5696   42.9521   47.8083 N   0  0  0  0  0  0  0  0  0  0  0  0
    4.6444   41.9240   46.8715 C   0  0  0  0  0  0  0  0  0  0  0  0
    3.7532   41.7958   45.8768 N   0  0  0  0  0  0  0  0  0  0  0  0
    3.9150   40.7653   45.0262 C   0  0  0  0  0  0  0  0  0  0  0  0
    4.9339   39.8528   45.1274 C   0  0  0  0  0  0  0  0  0  0  0  0
    5.7968   40.0601   46.1720 C   0  0  0  0  0  0  0  0  0  0  0  0
    5.6738   41.0769   47.0474 N   0  0  0  0  0  0  0  0  0  0  0  0
    4.8081   43.0053   50.2021 C   0  0  0  0  0  0  0  0  0  0  0  0
    5.5100   43.3346   51.3687 C   0  0  0  0  0  0  0  0  0  0  0  0
    6.6516   46.5001   53.3845 C   0  0  0  0  0  0  0  0  0  0  0  0
    5.2270   46.5714   53.3504 C   0  0  0  0  0  0  0  0  0  0  0  0
    4.8518   47.8036   53.8423 C   0  0  0  0  0  0  0  0  0  0  0  0
    5.9964   48.4879   54.1630 N   0  0  0  0  0  0  0  0  0  0  0  0
    7.0912   47.7170   53.8792 C   0  0  0  0  0  0  0  0  0  0  0  0
    8.3595   48.1077   54.0603 N   0  0  0  0  0  0  0  0  0  0  0  0
   11.2428   47.1664   52.9388 H   0  0  0  0  0  0  0  0  0  0  0  0
   10.8126   48.5730   53.9698 H   0  0  0  0  0  0  0  0  0  0  0  0
   11.0847   46.9620   54.7164 H   0  0  0  0  0  0  0  0  0  0  0  0
    7.0547   43.7220   53.2744 H   0  0  0  0  0  0  0  0  0  0  0  0
    8.2334   44.7932   49.9625 H   0  0  0  0  0  0  0  0  0  0  0  0
    6.9866   44.2051   47.8957 H   0  0  0  0  0  0  0  0  0  0  0  0
    3.7655   43.5216   47.5950 H   0  0  0  0  0  0  0  0  0  0  0  0
    3.1913   40.6488   44.2060 H   0  0  0  0  0  0  0  0  0  0  0  0
    5.0501   39.0165   44.4223 H   0  0  0  0  0  0  0  0  0  0  0  0
    6.6342   39.3589   46.3027 H   0  0  0  0  0  0  0  0  0  0  0  0
    3.8331   42.5027   50.2842 H   0  0  0  0  0  0  0  0  0  0  0  0
    5.0724   43.0985   52.3499 H   0  0  0  0  0  0  0  0  0  0  0  0
    4.5480   45.7826   52.9944 H   0  0  0  0  0  0  0  0  0  0  0  0
    3.8213   48.1711   53.9569 H   0  0  0  0  0  0  0  0  0  0  0  0
    6.0508   49.4232   54.5387 H   0  0  0  0  0  0  0  0  0  0  0  0
  1  2  1  0
  2  3  2  0
  3  4  1  0
  4  5  1  0
  5  6  1  0
  6  7  2  0
  7  8  1  0
  8  9  2  0
  9 10  1  0
 10 11  1  0
 11 12  2  0
 12 13  1  0
 13 14  2  0
 14 15  1  0
 15 16  2  0
  9 17  1  0
 17 18  2  0
  4 19  2  0
 19 20  1  0
 20 21  2  0
 21 22  1  0
 22 23  1  0
 23 24  2  0
 24  2  1  0
 18  6  1  0
 23 19  1  0
 16 11  1  0
  1 25  1  0
  1 26  1  0
  1 27  1  0
  5 28  1  0
  7 29  1  0
  8 30  1  0
 10 31  1  0
 13 32  1  0
 14 33  1  0
 15 34  1  0
 17 35  1  0
 18 36  1  0
 20 37  1  0
 21 38  1  0
 22 39  1  0
M  END
>  <meeko>  (4) 
{"is_sidechain": false}

>  <CID>  (4) 
Z1883550081

>  <pose_index>  (4) 
6

>  <docking_score>  (4) 
-8.456

>  <rmsd_to_best_selected>  (4) 
1.385168738812515

>  <MWT>  (4) 
317.3559999999997

>  <TPSA>  (4) 
91.41000000000001

>  <logP>  (4) 
3.543520000000001

>  <HBD>  (4) 
3

>  <HBA>  (4) 
6

>  <SMILES>  (4) 
[H]c1nc(N([H])c2c([H])c([H])c(N([H])c3nc(C([H])([H])[H])nc4c3c([H])c([H])n4[H])c([H])c2[H])nc([H])c1[H]

$$$$
Z1883550081_pose7
     RDKit          3D

 39 42  0  0  0  0  0  0  0  0999 V2000
   10.3391   47.2872   55.1832 C   0  0  0  0  0  0  0  0  0  0  0  0
    9.1093   47.0782   54.3530 C   0  0  0  0  0  0  0  0  0  0  0  0
    9.0824   45.9674   53.5803 N   0  0  0  0  0  0  0  0  0  0  0  0
    7.9797   45.6969   52.8363 C   0  0  0  0  0  0  0  0  0  0  0  0
    8.0249   44.5403   52.0439 N   0  0  0  0  0  0  0  0  0  0  0  0
    7.0806   44.0972   51.0960 C   0  0  0  0  0  0  0  0  0  0  0  0
    6.0441   43.2122   51.3977 C   0  0  0  0  0  0  0  0  0  0  0  0
    5.1512   42.7805   50.4045 C   0  0  0  0  0  0  0  0  0  0  0  0
    5.2727   43.2077   49.0811 C   0  0  0  0  0  0  0  0  0  0  0  0
    4.4197   42.8124   48.0491 N   0  0  0  0  0  0  0  0  0  0  0  0
    4.4976   41.8592   47.0365 C   0  0  0  0  0  0  0  0  0  0  0  0
    5.4376   41.9054   46.0807 N   0  0  0  0  0  0  0  0  0  0  0  0
    5.4215   40.9351   45.1473 C   0  0  0  0  0  0  0  0  0  0  0  0
    4.5035   39.9168   45.1273 C   0  0  0  0  0  0  0  0  0  0  0  0
    3.5810   39.9491   46.1407 C   0  0  0  0  0  0  0  0  0  0  0  0
    3.5570   40.8993   47.0961 N   0  0  0  0  0  0  0  0  0  0  0  0
    6.3304   44.0788   48.7810 C   0  0  0  0  0  0  0  0  0  0  0  0
    7.2240   44.5111   49.7698 C   0  0  0  0  0  0  0  0  0  0  0  0
    6.9188   46.6148   52.8713 C   0  0  0  0  0  0  0  0  0  0  0  0
    5.6499   46.7690   52.2385 C   0  0  0  0  0  0  0  0  0  0  0  0
    5.0725   47.9246   52.7232 C   0  0  0  0  0  0  0  0  0  0  0  0
    5.9489   48.4812   53.6192 N   0  0  0  0  0  0  0  0  0  0  0  0
    7.0735   47.7067   53.7085 C   0  0  0  0  0  0  0  0  0  0  0  0
    8.1284   47.9909   54.4831 N   0  0  0  0  0  0  0  0  0  0  0  0
   11.1975   46.8023   54.6954 H   0  0  0  0  0  0  0  0  0  0  0  0
   10.5350   48.3650   55.2834 H   0  0  0  0  0  0  0  0  0  0  0  0
   10.1875   46.8478   56.1802 H   0  0  0  0  0  0  0  0  0  0  0  0
    8.2963   43.7790   52.6620 H   0  0  0  0  0  0  0  0  0  0  0  0
    5.9254   42.8478   52.4288 H   0  0  0  0  0  0  0  0  0  0  0  0
    4.3382   42.0906   50.6748 H   0  0  0  0  0  0  0  0  0  0  0  0
    3.5224   43.2689   47.9915 H   0  0  0  0  0  0  0  0  0  0  0  0
    6.1867   40.9606   44.3576 H   0  0  0  0  0  0  0  0  0  0  0  0
    4.5071   39.1328   44.3557 H   0  0  0  0  0  0  0  0  0  0  0  0
    2.8191   39.1565   46.1760 H   0  0  0  0  0  0  0  0  0  0  0  0
    6.4612   44.4301   47.7469 H   0  0  0  0  0  0  0  0  0  0  0  0
    8.0494   45.1855   49.4979 H   0  0  0  0  0  0  0  0  0  0  0  0
    5.2097   46.0874   51.4957 H   0  0  0  0  0  0  0  0  0  0  0  0
    4.0879   48.3265   52.4419 H   0  0  0  0  0  0  0  0  0  0  0  0
    5.8154   49.3386   54.1352 H   0  0  0  0  0  0  0  0  0  0  0  0
  1  2  1  0
  2  3  2  0
  3  4  1  0
  4  5  1  0
  5  6  1  0
  6  7  2  0
  7  8  1  0
  8  9  2  0
  9 10  1  0
 10 11  1  0
 11 12  2  0
 12 13  1  0
 13 14  2  0
 14 15  1  0
 15 16  2  0
  9 17  1  0
 17 18  2  0
  4 19  2  0
 19 20  1  0
 20 21  2  0
 21 22  1  0
 22 23  1  0
 23 24  2  0
 24  2  1  0
 18  6  1  0
 23 19  1  0
 16 11  1  0
  1 25  1  0
  1 26  1  0
  1 27  1  0
  5 28  1  0
  7 29  1  0
  8 30  1  0
 10 31  1  0
 13 32  1  0
 14 33  1  0
 15 34  1  0
 17 35  1  0
 18 36  1  0
 20 37  1  0
 21 38  1  0
 22 39  1  0
M  END
>  <meeko>  (5) 
{"is_sidechain": false}

>  <CID>  (5) 
Z1883550081

>  <pose_index>  (5) 
7

>  <docking_score>  (5) 
-8.451

>  <rmsd_to_best_selected>  (5) 
1.8613362110971368

>  <MWT>  (5) 
317.3559999999997

>  <TPSA>  (5) 
91.41000000000001

>  <logP>  (5) 
3.543520000000001

>  <HBD>  (5) 
3

>  <HBA>  (5) 
6

>  <SMILES>  (5) 
[H]c1nc(N([H])c2c([H])c([H])c(N([H])c3nc(C([H])([H])[H])nc4c3c([H])c([H])n4[H])c([H])c2[H])nc([H])c1[H]

$$$$
Z1883550081_pose8
     RDKit          3D

 39 42  0  0  0  0  0  0  0  0999 V2000
   10.1106   45.5279   54.0151 C   0  0  0  0  0  0  0  0  0  0  0  0
    8.8493   46.2787   53.7162 C   0  0  0  0  0  0  0  0  0  0  0  0
    8.2892   46.0638   52.5030 N   0  0  0  0  0  0  0  0  0  0  0  0
    7.1235   46.6808   52.1863 C   0  0  0  0  0  0  0  0  0  0  0  0
    6.6076   46.4285   50.9058 N   0  0  0  0  0  0  0  0  0  0  0  0
    6.0894   45.2202   50.3981 C   0  0  0  0  0  0  0  0  0  0  0  0
    5.5208   44.2298   51.2003 C   0  0  0  0  0  0  0  0  0  0  0  0
    5.0486   43.0311   50.6421 C   0  0  0  0  0  0  0  0  0  0  0  0
    5.1401   42.7807   49.2727 C   0  0  0  0  0  0  0  0  0  0  0  0
    4.6933   41.6085   48.6578 N   0  0  0  0  0  0  0  0  0  0  0  0
    5.0361   40.9322   47.4910 C   0  0  0  0  0  0  0  0  0  0  0  0
    6.0124   40.0139   47.4563 N   0  0  0  0  0  0  0  0  0  0  0  0
    6.2658   39.4197   46.2749 C   0  0  0  0  0  0  0  0  0  0  0  0
    5.5819   39.7058   45.1211 C   0  0  0  0  0  0  0  0  0  0  0  0
    4.6029   40.6565   45.2491 C   0  0  0  0  0  0  0  0  0  0  0  0
    4.3141   41.2767   46.4088 N   0  0  0  0  0  0  0  0  0  0  0  0
    5.7332   43.7719   48.4756 C   0  0  0  0  0  0  0  0  0  0  0  0
    6.2064   44.9679   49.0296 C   0  0  0  0  0  0  0  0  0  0  0  0
    6.5622   47.5570   53.1276 C   0  0  0  0  0  0  0  0  0  0  0  0
    5.4368   48.4298   53.2033 C   0  0  0  0  0  0  0  0  0  0  0  0
    5.4487   49.0311   54.4440 C   0  0  0  0  0  0  0  0  0  0  0  0
    6.5460   48.5632   55.1203 N   0  0  0  0  0  0  0  0  0  0  0  0
    7.2351   47.6821   54.3327 C   0  0  0  0  0  0  0  0  0  0  0  0
    8.3663   47.0657   54.6969 N   0  0  0  0  0  0  0  0  0  0  0  0
   10.9775   46.1272   53.7000 H   0  0  0  0  0  0  0  0  0  0  0  0
   10.1735   45.3322   55.0958 H   0  0  0  0  0  0  0  0  0  0  0  0
   10.1071   44.5729   53.4692 H   0  0  0  0  0  0  0  0  0  0  0  0
    7.2616   46.8424   50.2456 H   0  0  0  0  0  0  0  0  0  0  0  0
    5.4414   44.3906   52.2856 H   0  0  0  0  0  0  0  0  0  0  0  0
    4.5967   42.2730   51.2987 H   0  0  0  0  0  0  0  0  0  0  0  0
    3.9804   41.0807   49.1373 H   0  0  0  0  0  0  0  0  0  0  0  0
    7.0641   38.6641   46.2330 H   0  0  0  0  0  0  0  0  0  0  0  0
    5.8026   39.2095   44.1646 H   0  0  0  0  0  0  0  0  0  0  0  0
    4.0215   40.9277   44.3555 H   0  0  0  0  0  0  0  0  0  0  0  0
    5.8284   43.6058   47.3924 H   0  0  0  0  0  0  0  0  0  0  0  0
    6.6768   45.7189   48.3779 H   0  0  0  0  0  0  0  0  0  0  0  0
    4.6909   48.5941   52.4117 H   0  0  0  0  0  0  0  0  0  0  0  0
    4.7118   49.7548   54.8225 H   0  0  0  0  0  0  0  0  0  0  0  0
    6.8325   48.8242   56.0531 H   0  0  0  0  0  0  0  0  0  0  0  0
  1  2  1  0
  2  3  2  0
  3  4  1  0
  4  5  1  0
  5  6  1  0
  6  7  2  0
  7  8  1  0
  8  9  2  0
  9 10  1  0
 10 11  1  0
 11 12  2  0
 12 13  1  0
 13 14  2  0
 14 15  1  0
 15 16  2  0
  9 17  1  0
 17 18  2  0
  4 19  2  0
 19 20  1  0
 20 21  2  0
 21 22  1  0
 22 23  1  0
 23 24  2  0
 24  2  1  0
 18  6  1  0
 23 19  1  0
 16 11  1  0
  1 25  1  0
  1 26  1  0
  1 27  1  0
  5 28  1  0
  7 29  1  0
  8 30  1  0
 10 31  1  0
 13 32  1  0
 14 33  1  0
 15 34  1  0
 17 35  1  0
 18 36  1  0
 20 37  1  0
 21 38  1  0
 22 39  1  0
M  END
>  <meeko>  (6) 
{"is_sidechain": false}

>  <CID>  (6) 
Z1883550081

>  <pose_index>  (6) 
8

>  <docking_score>  (6) 
-8.377

>  <rmsd_to_best_selected>  (6) 
1.7384133406119224

>  <MWT>  (6) 
317.3559999999997

>  <TPSA>  (6) 
91.41000000000001

>  <logP>  (6) 
3.543520000000001

>  <HBD>  (6) 
3

>  <HBA>  (6) 
6

>  <SMILES>  (6) 
[H]c1nc(N([H])c2c([H])c([H])c(N([H])c3nc(C([H])([H])[H])nc4c3c([H])c([H])n4[H])c([H])c2[H])nc([H])c1[H]

$$$$
Z1883550081_pose9
     RDKit          3D

 39 42  0  0  0  0  0  0  0  0999 V2000
    9.8729   45.4070   54.0424 C   0  0  0  0  0  0  0  0  0  0  0  0
    8.6679   46.2505   53.7590 C   0  0  0  0  0  0  0  0  0  0  0  0
    7.9881   45.9739   52.6220 N   0  0  0  0  0  0  0  0  0  0  0  0
    6.8636   46.6735   52.3275 C   0  0  0  0  0  0  0  0  0  0  0  0
    6.2185   46.3484   51.1246 N   0  0  0  0  0  0  0  0  0  0  0  0
    6.0946   45.0820   50.5172 C   0  0  0  0  0  0  0  0  0  0  0  0
    7.0506   44.5465   49.6531 C   0  0  0  0  0  0  0  0  0  0  0  0
    6.8578   43.2924   49.0524 C   0  0  0  0  0  0  0  0  0  0  0  0
    5.7043   42.5427   49.2862 C   0  0  0  0  0  0  0  0  0  0  0  0
    5.4527   41.2924   48.7163 N   0  0  0  0  0  0  0  0  0  0  0  0
    5.3602   40.8218   47.4085 C   0  0  0  0  0  0  0  0  0  0  0  0
    6.4110   40.8134   46.5755 N   0  0  0  0  0  0  0  0  0  0  0  0
    6.2127   40.3390   45.3313 C   0  0  0  0  0  0  0  0  0  0  0  0
    5.0047   39.8707   44.8825 C   0  0  0  0  0  0  0  0  0  0  0  0
    3.9879   39.9155   45.8011 C   0  0  0  0  0  0  0  0  0  0  0  0
    4.1389   40.3819   47.0559 N   0  0  0  0  0  0  0  0  0  0  0  0
    4.7378   43.0977   50.1381 C   0  0  0  0  0  0  0  0  0  0  0  0
    4.9254   44.3495   50.7379 C   0  0  0  0  0  0  0  0  0  0  0  0
    6.4710   47.6944   53.2079 C   0  0  0  0  0  0  0  0  0  0  0  0
    5.4449   48.6825   53.2708 C   0  0  0  0  0  0  0  0  0  0  0  0
    5.6204   49.4016   54.4344 C   0  0  0  0  0  0  0  0  0  0  0  0
    6.7215   48.8931   55.0748 N   0  0  0  0  0  0  0  0  0  0  0  0
    7.2528   47.8693   54.3379 C   0  0  0  0  0  0  0  0  0  0  0  0
    8.3477   47.1783   54.6812 N   0  0  0  0  0  0  0  0  0  0  0  0
    9.5942   44.3437   54.0008 H   0  0  0  0  0  0  0  0  0  0  0  0
   10.6493   45.6123   53.2907 H   0  0  0  0  0  0  0  0  0  0  0  0
   10.2602   45.6456   55.0440 H   0  0  0  0  0  0  0  0  0  0  0  0
    6.5139   47.0444   50.4440 H   0  0  0  0  0  0  0  0  0  0  0  0
    7.9679   45.1148   49.4396 H   0  0  0  0  0  0  0  0  0  0  0  0
    7.6330   42.8918   48.3827 H   0  0  0  0  0  0  0  0  0  0  0  0
    5.3276   40.5157   49.3470 H   0  0  0  0  0  0  0  0  0  0  0  0
    7.0659   40.3264   44.6372 H   0  0  0  0  0  0  0  0  0  0  0  0
    4.8620   39.4875   43.8613 H   0  0  0  0  0  0  0  0  0  0  0  0
    2.9955   39.5509   45.4973 H   0  0  0  0  0  0  0  0  0  0  0  0
    3.8126   42.5378   50.3394 H   0  0  0  0  0  0  0  0  0  0  0  0
    4.1421   44.7613   51.3912 H   0  0  0  0  0  0  0  0  0  0  0  0
    4.6536   48.8427   52.5237 H   0  0  0  0  0  0  0  0  0  0  0  0
    4.9911   50.2327   54.7855 H   0  0  0  0  0  0  0  0  0  0  0  0
    7.1103   49.2158   55.9485 H   0  0  0  0  0  0  0  0  0  0  0  0
  1  2  1  0
  2  3  2  0
  3  4  1  0
  4  5  1  0
  5  6  1  0
  6  7  2  0
  7  8  1  0
  8  9  2  0
  9 10  1  0
 10 11  1  0
 11 12  2  0
 12 13  1  0
 13 14  2  0
 14 15  1  0
 15 16  2  0
  9 17  1  0
 17 18  2  0
  4 19  2  0
 19 20  1  0
 20 21  2  0
 21 22  1  0
 22 23  1  0
 23 24  2  0
 24  2  1  0
 18  6  1  0
 23 19  1  0
 16 11  1  0
  1 25  1  0
  1 26  1  0
  1 27  1  0
  5 28  1  0
  7 29  1  0
  8 30  1  0
 10 31  1  0
 13 32  1  0
 14 33  1  0
 15 34  1  0
 17 35  1  0
 18 36  1  0
 20 37  1  0
 21 38  1  0
 22 39  1  0
M  END
>  <meeko>  (7) 
{"is_sidechain": false}

>  <CID>  (7) 
Z1883550081

>  <pose_index>  (7) 
9

>  <docking_score>  (7) 
-8.328

>  <rmsd_to_best_selected>  (7) 
1.3610520848738883

>  <MWT>  (7) 
317.3559999999997

>  <TPSA>  (7) 
91.41000000000001

>  <logP>  (7) 
3.543520000000001

>  <HBD>  (7) 
3

>  <HBA>  (7) 
6

>  <SMILES>  (7) 
[H]c1nc(N([H])c2c([H])c([H])c(N([H])c3nc(C([H])([H])[H])nc4c3c([H])c([H])n4[H])c([H])c2[H])nc([H])c1[H]

$$$$
Z1883550081_pose10
     RDKit          3D

 39 42  0  0  0  0  0  0  0  0999 V2000
    9.9123   45.3348   54.3725 C   0  0  0  0  0  0  0  0  0  0  0  0
    8.6729   46.0880   53.9973 C   0  0  0  0  0  0  0  0  0  0  0  0
    7.6967   45.3788   53.3832 N   0  0  0  0  0  0  0  0  0  0  0  0
    6.5315   45.9919   53.0546 C   0  0  0  0  0  0  0  0  0  0  0  0
    5.5692   45.2048   52.4042 N   0  0  0  0  0  0  0  0  0  0  0  0
    5.6844   44.5337   51.1699 C   0  0  0  0  0  0  0  0  0  0  0  0
    4.9326   43.4078   50.8327 C   0  0  0  0  0  0  0  0  0  0  0  0
    5.1122   42.7607   49.6008 C   0  0  0  0  0  0  0  0  0  0  0  0
    6.0535   43.2112   48.6733 C   0  0  0  0  0  0  0  0  0  0  0  0
    6.2817   42.6099   47.4332 N   0  0  0  0  0  0  0  0  0  0  0  0
    5.7543   41.4981   46.7807 C   0  0  0  0  0  0  0  0  0  0  0  0
    6.4225   40.3397   46.6885 N   0  0  0  0  0  0  0  0  0  0  0  0
    5.8232   39.3266   46.0343 C   0  0  0  0  0  0  0  0  0  0  0  0
    4.5790   39.4231   45.4656 C   0  0  0  0  0  0  0  0  0  0  0  0
    3.9702   40.6437   45.6076 C   0  0  0  0  0  0  0  0  0  0  0  0
    4.5311   41.6838   46.2541 N   0  0  0  0  0  0  0  0  0  0  0  0
    6.8214   44.3302   49.0270 C   0  0  0  0  0  0  0  0  0  0  0  0
    6.6457   44.9769   50.2573 C   0  0  0  0  0  0  0  0  0  0  0  0
    6.4034   47.3614   53.3348 C   0  0  0  0  0  0  0  0  0  0  0  0
    5.4337   48.3852   53.1216 C   0  0  0  0  0  0  0  0  0  0  0  0
    5.9320   49.5576   53.6499 C   0  0  0  0  0  0  0  0  0  0  0  0
    7.1733   49.2848   54.1652 N   0  0  0  0  0  0  0  0  0  0  0  0
    7.4758   47.9649   53.9699 C   0  0  0  0  0  0  0  0  0  0  0  0
    8.6265   47.3887   54.3420 N   0  0  0  0  0  0  0  0  0  0  0  0
   10.5191   45.1558   53.4727 H   0  0  0  0  0  0  0  0  0  0  0  0
   10.4946   45.9242   55.0961 H   0  0  0  0  0  0  0  0  0  0  0  0
    9.6333   44.3714   54.8243 H   0  0  0  0  0  0  0  0  0  0  0  0
    4.6954   45.7232   52.4489 H   0  0  0  0  0  0  0  0  0  0  0  0
    4.1875   43.0214   51.5438 H   0  0  0  0  0  0  0  0  0  0  0  0
    4.4985   41.8799   49.3607 H   0  0  0  0  0  0  0  0  0  0  0  0
    6.9515   43.0529   46.8224 H   0  0  0  0  0  0  0  0  0  0  0  0
    6.3606   38.3704   45.9516 H   0  0  0  0  0  0  0  0  0  0  0  0
    4.1049   38.5842   44.9351 H   0  0  0  0  0  0  0  0  0  0  0  0
    2.9702   40.7807   45.1702 H   0  0  0  0  0  0  0  0  0  0  0  0
    7.5778   44.7081   48.3233 H   0  0  0  0  0  0  0  0  0  0  0  0
    7.2728   45.8451   50.5085 H   0  0  0  0  0  0  0  0  0  0  0  0
    4.4605   48.2616   52.6238 H   0  0  0  0  0  0  0  0  0  0  0  0
    5.4257   50.5342   53.6567 H   0  0  0  0  0  0  0  0  0  0  0  0
    7.7956   49.9423   54.6130 H   0  0  0  0  0  0  0  0  0  0  0  0
  1  2  1  0
  2  3  2  0
  3  4  1  0
  4  5  1  0
  5  6  1  0
  6  7  2  0
  7  8  1  0
  8  9  2  0
  9 10  1  0
 10 11  1  0
 11 12  2  0
 12 13  1  0
 13 14  2  0
 14 15  1  0
 15 16  2  0
  9 17  1  0
 17 18  2  0
  4 19  2  0
 19 20  1  0
 20 21  2  0
 21 22  1  0
 22 23  1  0
 23 24  2  0
 24  2  1  0
 18  6  1  0
 23 19  1  0
 16 11  1  0
  1 25  1  0
  1 26  1  0
  1 27  1  0
  5 28  1  0
  7 29  1  0
  8 30  1  0
 10 31  1  0
 13 32  1  0
 14 33  1  0
 15 34  1  0
 17 35  1  0
 18 36  1  0
 20 37  1  0
 21 38  1  0
 22 39  1  0
M  END
>  <meeko>  (8) 
{"is_sidechain": false}

>  <CID>  (8) 
Z1883550081

>  <pose_index>  (8) 
10

>  <docking_score>  (8) 
-8.257

>  <rmsd_to_best_selected>  (8) 
1.0590834667442903

>  <MWT>  (8) 
317.3559999999997

>  <TPSA>  (8) 
91.41000000000001

>  <logP>  (8) 
3.543520000000001

>  <HBD>  (8) 
3

>  <HBA>  (8) 
6

>  <SMILES>  (8) 
[H]c1nc(N([H])c2c([H])c([H])c(N([H])c3nc(C([H])([H])[H])nc4c3c([H])c([H])n4[H])c([H])c2[H])nc([H])c1[H]

$$$$
