Z2654643499_pose3
     RDKit          3D

 50 53  0  0  0  0  0  0  0  0999 V2000
   -2.5902   44.0276   55.7587 C   0  0  0  0  0  0  0  0  0  0  0  0
   -2.1257   43.2044   54.7385 C   0  0  0  0  0  0  0  0  0  0  0  0
   -0.7820   43.2615   54.3514 C   0  0  0  0  0  0  0  0  0  0  0  0
    0.1191   44.1276   54.9598 C   0  0  0  0  0  0  0  0  0  0  0  0
    1.3997   44.1556   54.5606 N   0  0  0  0  0  0  0  0  0  0  0  0
    2.2342   44.9983   55.1814 C   0  0  0  0  0  0  0  0  0  0  0  0
    3.5462   44.9638   54.7132 N   0  0  0  0  0  0  0  0  0  0  0  0
    3.8723   45.9252   53.6691 C   0  0  1  0  0  0  0  0  0  0  0  0
    4.5983   47.1447   54.2649 C   0  0  0  0  0  0  0  0  0  0  0  0
    5.9495   46.7696   54.8802 C   0  0  0  0  0  0  0  0  0  0  0  0
    6.8974   46.0850   53.8852 C   0  0  2  0  0  0  0  0  0  0  0  0
    7.4037   47.0487   52.7869 N   0  0  0  0  0  4  0  0  0  0  0  0
    8.2469   48.2193   53.2517 C   0  0  0  0  0  0  0  0  0  0  0  0
    9.5974   47.7453   53.7689 C   0  0  0  0  0  0  0  0  0  0  0  0
   10.2412   46.6904   52.8730 C   0  0  0  0  0  0  0  0  0  0  0  0
    9.5697   46.6285   51.5094 C   0  0  0  0  0  0  0  0  0  0  0  0
    8.0809   46.3135   51.6233 C   0  0  0  0  0  0  0  0  0  0  0  0
    6.1719   44.8873   53.2325 C   0  0  0  0  0  0  0  0  0  0  0  0
    4.7980   45.2385   52.6479 C   0  0  0  0  0  0  0  0  0  0  0  0
    1.8755   45.8318   56.1612 N   0  0  0  0  0  0  0  0  0  0  0  0
    0.5847   45.7873   56.5457 C   0  0  0  0  0  0  0  0  0  0  0  0
   -0.3603   44.9485   55.9818 C   0  0  0  0  0  0  0  0  0  0  0  0
   -1.7094   44.9045   56.3858 C   0  0  0  0  0  0  0  0  0  0  0  0
   -3.6452   43.9862   56.0676 H   0  0  0  0  0  0  0  0  0  0  0  0
   -2.8141   42.5088   54.2362 H   0  0  0  0  0  0  0  0  0  0  0  0
   -0.4294   42.6031   53.5438 H   0  0  0  0  0  0  0  0  0  0  0  0
    3.6600   43.9800   54.4722 H   0  0  0  0  0  0  0  0  0  0  0  0
    2.9448   46.2680   53.1872 H   0  0  0  0  0  0  0  0  0  0  0  0
    4.7652   47.8826   53.4664 H   0  0  0  0  0  0  0  0  0  0  0  0
    3.9656   47.5567   55.0649 H   0  0  0  0  0  0  0  0  0  0  0  0
    6.4324   47.6866   55.2490 H   0  0  0  0  0  0  0  0  0  0  0  0
    5.7522   46.0523   55.6905 H   0  0  0  0  0  0  0  0  0  0  0  0
    7.7791   45.7440   54.4478 H   0  0  0  0  0  0  0  0  0  0  0  0
    6.5643   47.4833   52.3874 H   0  0  0  0  0  0  0  0  0  0  0  0
    8.4057   48.9063   52.4074 H   0  0  0  0  0  0  0  0  0  0  0  0
    7.7175   48.7306   54.0692 H   0  0  0  0  0  0  0  0  0  0  0  0
   10.2725   48.6114   53.8318 H   0  0  0  0  0  0  0  0  0  0  0  0
    9.4297   47.2838   54.7533 H   0  0  0  0  0  0  0  0  0  0  0  0
   11.3041   46.9384   52.7366 H   0  0  0  0  0  0  0  0  0  0  0  0
   10.1257   45.7099   53.3582 H   0  0  0  0  0  0  0  0  0  0  0  0
    9.6904   47.6006   51.0089 H   0  0  0  0  0  0  0  0  0  0  0  0
   10.0457   45.8233   50.9307 H   0  0  0  0  0  0  0  0  0  0  0  0
    7.5867   46.6089   50.6860 H   0  0  0  0  0  0  0  0  0  0  0  0
    7.9848   45.2343   51.8134 H   0  0  0  0  0  0  0  0  0  0  0  0
    6.8049   44.4989   52.4211 H   0  0  0  0  0  0  0  0  0  0  0  0
    6.0017   44.1451   54.0264 H   0  0  0  0  0  0  0  0  0  0  0  0
    4.9425   45.9159   51.7934 H   0  0  0  0  0  0  0  0  0  0  0  0
    4.3165   44.2968   52.3455 H   0  0  0  0  0  0  0  0  0  0  0  0
    0.2630   46.4579   57.3562 H   0  0  0  0  0  0  0  0  0  0  0  0
   -2.0653   45.5606   57.1937 H   0  0  0  0  0  0  0  0  0  0  0  0
  1  2  2  0
  2  3  1  0
  3  4  2  0
  4  5  1  0
  5  6  2  0
  6  7  1  0
  7  8  1  0
  8  9  1  0
  9 10  1  0
 10 11  1  0
 11 12  1  0
 12 13  1  0
 13 14  1  0
 14 15  1  0
 15 16  1  0
 16 17  1  0
 11 18  1  0
 18 19  1  0
  6 20  1  0
 20 21  2  0
 21 22  1  0
 22 23  2  0
 23  1  1  0
 22  4  1  0
 19  8  1  0
 17 12  1  0
  1 24  1  0
  2 25  1  0
  3 26  1  0
  7 27  1  0
  8 28  1  6
  9 29  1  0
  9 30  1  0
 10 31  1  0
 10 32  1  0
 11 33  1  1
 12 34  1  0
 13 35  1  0
 13 36  1  0
 14 37  1  0
 14 38  1  0
 15 39  1  0
 15 40  1  0
 16 41  1  0
 16 42  1  0
 17 43  1  0
 17 44  1  0
 18 45  1  0
 18 46  1  0
 19 47  1  0
 19 48  1  0
 21 49  1  0
 23 50  1  0
M  CHG  1  12   1
M  END
>  <meeko>  (1) 
{"is_sidechain": false}

>  <CID>  (1) 
Z2654643499

>  <pose_index>  (1) 
3

>  <docking_score>  (1) 
-8.394

>  <rmsd_to_best_selected>  (1) 
1.6548222414377962

>  <MWT>  (1) 
311.4529999999995

>  <TPSA>  (1) 
42.25

>  <logP>  (1) 
2.4216999999999995

>  <HBD>  (1) 
2

>  <HBA>  (1) 
3

>  <SMILES>  (1) 
[H]c1c([H])c([H])c2c([H])nc(N([H])C3([H])C([H])([H])C([H])([H])C([H])([N+]4([H])C([H])([H])C([H])([H])C([H])([H])C([H])([H])C4([H])[H])C([H])([H])C3([H])[H])nc2c1[H]

$$$$
Z2654643499_pose1
     RDKit          3D

 50 53  0  0  0  0  0  0  0  0999 V2000
   -2.4750   44.7420   56.3160 C   0  0  0  0  0  0  0  0  0  0  0  0
   -1.6450   45.5070   57.1280 C   0  0  0  0  0  0  0  0  0  0  0  0
   -0.2830   45.6180   56.8280 C   0  0  0  0  0  0  0  0  0  0  0  0
    0.2790   44.9790   55.7300 C   0  0  0  0  0  0  0  0  0  0  0  0
    1.5900   45.1080   55.4740 N   0  0  0  0  0  0  0  0  0  0  0  0
    2.0870   44.4820   54.4010 C   0  0  0  0  0  0  0  0  0  0  0  0
    3.4530   44.6700   54.2020 N   0  0  0  0  0  0  0  0  0  0  0  0
    3.8610   46.0160   53.8260 C   0  0  1  0  0  0  0  0  0  0  0  0
    4.8460   46.5910   54.8580 C   0  0  0  0  0  0  0  0  0  0  0  0
    6.1530   45.7950   54.9180 C   0  0  0  0  0  0  0  0  0  0  0  0
    6.8710   45.7110   53.5630 C   0  0  2  0  0  0  0  0  0  0  0  0
    7.4500   47.0720   53.1130 N   0  0  0  0  0  4  0  0  0  0  0  0
    8.5320   47.6710   53.9900 C   0  0  0  0  0  0  0  0  0  0  0  0
    9.8110   46.8490   53.9130 C   0  0  0  0  0  0  0  0  0  0  0  0
   10.1700   46.4400   52.4860 C   0  0  0  0  0  0  0  0  0  0  0  0
    9.3840   47.2420   51.4590 C   0  0  0  0  0  0  0  0  0  0  0  0
    7.8780   47.0740   51.6400 C   0  0  0  0  0  0  0  0  0  0  0  0
    5.8860   45.1870   52.4960 C   0  0  0  0  0  0  0  0  0  0  0  0
    4.5540   45.9480   52.4530 C   0  0  0  0  0  0  0  0  0  0  0  0
    1.3700   43.7190   53.5710 N   0  0  0  0  0  0  0  0  0  0  0  0
    0.0560   43.6040   53.8470 C   0  0  0  0  0  0  0  0  0  0  0  0
   -0.5640   44.2140   54.9230 C   0  0  0  0  0  0  0  0  0  0  0  0
   -1.9390   44.0910   55.2080 C   0  0  0  0  0  0  0  0  0  0  0  0
   -3.5467   44.6518   56.5472 H   0  0  0  0  0  0  0  0  0  0  0  0
   -2.0591   46.0247   58.0058 H   0  0  0  0  0  0  0  0  0  0  0  0
    0.3603   46.2279   57.4793 H   0  0  0  0  0  0  0  0  0  0  0  0
    3.6750   43.9290   53.5370 H   0  0  0  0  0  0  0  0  0  0  0  0
    2.9749   46.6665   53.7852 H   0  0  0  0  0  0  0  0  0  0  0  0
    5.0772   47.6313   54.5853 H   0  0  0  0  0  0  0  0  0  0  0  0
    4.3697   46.5323   55.8478 H   0  0  0  0  0  0  0  0  0  0  0  0
    6.8254   46.2803   55.6408 H   0  0  0  0  0  0  0  0  0  0  0  0
    5.8976   44.7679   55.2176 H   0  0  0  0  0  0  0  0  0  0  0  0
    7.7190   45.0201   53.6789 H   0  0  0  0  0  0  0  0  0  0  0  0
    6.6750   47.7420   53.1750 H   0  0  0  0  0  0  0  0  0  0  0  0
    8.7423   48.6967   53.6526 H   0  0  0  0  0  0  0  0  0  0  0  0
    8.1784   47.6739   55.0316 H   0  0  0  0  0  0  0  0  0  0  0  0
   10.6375   47.4465   54.3253 H   0  0  0  0  0  0  0  0  0  0  0  0
    9.6455   45.9265   54.4889 H   0  0  0  0  0  0  0  0  0  0  0  0
   11.2448   46.6104   52.3255 H   0  0  0  0  0  0  0  0  0  0  0  0
    9.9176   45.3769   52.3589 H   0  0  0  0  0  0  0  0  0  0  0  0
    9.6390   48.3065   51.5676 H   0  0  0  0  0  0  0  0  0  0  0  0
    9.6514   46.8713   50.4585 H   0  0  0  0  0  0  0  0  0  0  0  0
    7.3683   47.9033   51.1276 H   0  0  0  0  0  0  0  0  0  0  0  0
    7.6014   46.0980   51.2147 H   0  0  0  0  0  0  0  0  0  0  0  0
    6.3658   45.2724   51.5099 H   0  0  0  0  0  0  0  0  0  0  0  0
    5.6508   44.1459   52.7621 H   0  0  0  0  0  0  0  0  0  0  0  0
    4.7463   46.9737   52.1053 H   0  0  0  0  0  0  0  0  0  0  0  0
    3.8840   45.4045   51.7705 H   0  0  0  0  0  0  0  0  0  0  0  0
   -0.5609   42.9879   53.1763 H   0  0  0  0  0  0  0  0  0  0  0  0
   -2.5857   43.4834   54.5579 H   0  0  0  0  0  0  0  0  0  0  0  0
  1  2  2  0
  2  3  1  0
  3  4  2  0
  4  5  1  0
  5  6  2  0
  6  7  1  0
  7  8  1  0
  8  9  1  0
  9 10  1  0
 10 11  1  0
 11 12  1  0
 12 13  1  0
 13 14  1  0
 14 15  1  0
 15 16  1  0
 16 17  1  0
 11 18  1  0
 18 19  1  0
  6 20  1  0
 20 21  2  0
 21 22  1  0
 22 23  2  0
 23  1  1  0
 22  4  1  0
 19  8  1  0
 17 12  1  0
  1 24  1  0
  2 25  1  0
  3 26  1  0
  7 27  1  0
  8 28  1  6
  9 29  1  0
  9 30  1  0
 10 31  1  0
 10 32  1  0
 11 33  1  1
 12 34  1  0
 13 35  1  0
 13 36  1  0
 14 37  1  0
 14 38  1  0
 15 39  1  0
 15 40  1  0
 16 41  1  0
 16 42  1  0
 17 43  1  0
 17 44  1  0
 18 45  1  0
 18 46  1  0
 19 47  1  0
 19 48  1  0
 21 49  1  0
 23 50  1  0
M  CHG  1  12   1
M  END
>  <meeko>  (2) 
{"is_sidechain": false}

>  <CID>  (2) 
Z2654643499

>  <pose_index>  (2) 
1

>  <docking_score>  (2) 
-8.597

>  <rmsd_to_best_selected>  (2) 
0.0

>  <MWT>  (2) 
311.4529999999995

>  <TPSA>  (2) 
42.25

>  <logP>  (2) 
2.4216999999999995

>  <HBD>  (2) 
2

>  <HBA>  (2) 
3

>  <SMILES>  (2) 
[H]c1c([H])c([H])c2c([H])nc(N([H])C3([H])C([H])([H])C([H])([H])C([H])([N+]4([H])C([H])([H])C([H])([H])C([H])([H])C([H])([H])C4([H])[H])C([H])([H])C3([H])[H])nc2c1[H]

$$$$
Z2654643499_pose4
     RDKit          3D

 50 53  0  0  0  0  0  0  0  0999 V2000
   -1.9226   42.9588   55.0097 C   0  0  0  0  0  0  0  0  0  0  0  0
   -2.0458   44.1014   54.2273 C   0  0  0  0  0  0  0  0  0  0  0  0
   -0.9934   45.0227   54.1647 C   0  0  0  0  0  0  0  0  0  0  0  0
    0.1886   44.8315   54.8694 C   0  0  0  0  0  0  0  0  0  0  0  0
    1.1751   45.7366   54.7865 N   0  0  0  0  0  0  0  0  0  0  0  0
    2.2993   45.5086   55.4760 C   0  0  0  0  0  0  0  0  0  0  0  0
    3.2762   46.4917   55.3319 N   0  0  0  0  0  0  0  0  0  0  0  0
    3.6690   46.8006   53.9647 C   0  0  1  0  0  0  0  0  0  0  0  0
    4.5191   48.0828   53.9234 C   0  0  0  0  0  0  0  0  0  0  0  0
    5.8420   47.9253   54.6774 C   0  0  0  0  0  0  0  0  0  0  0  0
    6.7002   46.7632   54.1572 C   0  0  2  0  0  0  0  0  0  0  0  0
    7.2708   47.0312   52.7454 N   0  0  0  0  0  4  0  0  0  0  0  0
    8.4265   48.0081   52.6584 C   0  0  0  0  0  0  0  0  0  0  0  0
    9.6800   47.4255   53.2965 C   0  0  0  0  0  0  0  0  0  0  0  0
    9.9225   45.9684   52.9098 C   0  0  0  0  0  0  0  0  0  0  0  0
    9.0779   45.5590   51.7131 C   0  0  0  0  0  0  0  0  0  0  0  0
    7.5871   45.7398   51.9817 C   0  0  0  0  0  0  0  0  0  0  0  0
    5.8512   45.4725   54.1392 C   0  0  0  0  0  0  0  0  0  0  0  0
    4.5041   45.6267   53.4221 C   0  0  0  0  0  0  0  0  0  0  0  0
    2.5023   44.4468   56.2598 N   0  0  0  0  0  0  0  0  0  0  0  0
    1.4981   43.5510   56.3297 C   0  0  0  0  0  0  0  0  0  0  0  0
    0.2991   43.6812   55.6516 C   0  0  0  0  0  0  0  0  0  0  0  0
   -0.7502   42.7417   55.7268 C   0  0  0  0  0  0  0  0  0  0  0  0
   -2.7463   42.2316   55.0615 H   0  0  0  0  0  0  0  0  0  0  0  0
   -2.9695   44.2814   53.6578 H   0  0  0  0  0  0  0  0  0  0  0  0
   -1.1054   45.9218   53.5410 H   0  0  0  0  0  0  0  0  0  0  0  0
    4.0139   46.1491   55.9472 H   0  0  0  0  0  0  0  0  0  0  0  0
    2.7679   46.9554   53.3532 H   0  0  0  0  0  0  0  0  0  0  0  0
    4.7369   48.3295   52.8738 H   0  0  0  0  0  0  0  0  0  0  0  0
    3.9453   48.8837   54.4127 H   0  0  0  0  0  0  0  0  0  0  0  0
    6.4165   48.8577   54.5740 H   0  0  0  0  0  0  0  0  0  0  0  0
    5.5960   47.7057   55.7268 H   0  0  0  0  0  0  0  0  0  0  0  0
    7.5580   46.6532   54.8370 H   0  0  0  0  0  0  0  0  0  0  0  0
    6.5157   47.4848   52.2192 H   0  0  0  0  0  0  0  0  0  0  0  0
    8.6310   48.2307   51.6007 H   0  0  0  0  0  0  0  0  0  0  0  0
    8.1518   48.9263   53.1983 H   0  0  0  0  0  0  0  0  0  0  0  0
   10.5466   48.0224   52.9760 H   0  0  0  0  0  0  0  0  0  0  0  0
    9.5405   47.4583   54.3871 H   0  0  0  0  0  0  0  0  0  0  0  0
   10.9853   45.8379   52.6581 H   0  0  0  0  0  0  0  0  0  0  0  0
    9.6404   45.3342   53.7632 H   0  0  0  0  0  0  0  0  0  0  0  0
    9.3614   46.1780   50.8491 H   0  0  0  0  0  0  0  0  0  0  0  0
    9.2621   44.4930   51.5140 H   0  0  0  0  0  0  0  0  0  0  0  0
    7.0572   45.7632   51.0180 H   0  0  0  0  0  0  0  0  0  0  0  0
    7.2600   44.8971   52.6084 H   0  0  0  0  0  0  0  0  0  0  0  0
    6.4270   44.6858   53.6297 H   0  0  0  0  0  0  0  0  0  0  0  0
    5.6291   45.2209   55.1867 H   0  0  0  0  0  0  0  0  0  0  0  0
    4.6933   45.7954   52.3517 H   0  0  0  0  0  0  0  0  0  0  0  0
    3.9299   44.7045   53.5952 H   0  0  0  0  0  0  0  0  0  0  0  0
    1.6401   42.6634   56.9637 H   0  0  0  0  0  0  0  0  0  0  0  0
   -0.6422   41.8413   56.3495 H   0  0  0  0  0  0  0  0  0  0  0  0
  1  2  2  0
  2  3  1  0
  3  4  2  0
  4  5  1  0
  5  6  2  0
  6  7  1  0
  7  8  1  0
  8  9  1  0
  9 10  1  0
 10 11  1  0
 11 12  1  0
 12 13  1  0
 13 14  1  0
 14 15  1  0
 15 16  1  0
 16 17  1  0
 11 18  1  0
 18 19  1  0
  6 20  1  0
 20 21  2  0
 21 22  1  0
 22 23  2  0
 23  1  1  0
 22  4  1  0
 19  8  1  0
 17 12  1  0
  1 24  1  0
  2 25  1  0
  3 26  1  0
  7 27  1  0
  8 28  1  6
  9 29  1  0
  9 30  1  0
 10 31  1  0
 10 32  1  0
 11 33  1  1
 12 34  1  0
 13 35  1  0
 13 36  1  0
 14 37  1  0
 14 38  1  0
 15 39  1  0
 15 40  1  0
 16 41  1  0
 16 42  1  0
 17 43  1  0
 17 44  1  0
 18 45  1  0
 18 46  1  0
 19 47  1  0
 19 48  1  0
 21 49  1  0
 23 50  1  0
M  CHG  1  12   1
M  END
>  <meeko>  (3) 
{"is_sidechain": false}

>  <CID>  (3) 
Z2654643499

>  <pose_index>  (3) 
4

>  <docking_score>  (3) 
-8.333

>  <rmsd_to_best_selected>  (3) 
1.2432333062662373

>  <MWT>  (3) 
311.4529999999995

>  <TPSA>  (3) 
42.25

>  <logP>  (3) 
2.4216999999999995

>  <HBD>  (3) 
2

>  <HBA>  (3) 
3

>  <SMILES>  (3) 
[H]c1c([H])c([H])c2c([H])nc(N([H])C3([H])C([H])([H])C([H])([H])C([H])([N+]4([H])C([H])([H])C([H])([H])C([H])([H])C([H])([H])C4([H])[H])C([H])([H])C3([H])[H])nc2c1[H]

$$$$
Z2654643499_pose5
     RDKit          3D

 50 53  0  0  0  0  0  0  0  0999 V2000
   -2.6406   44.5009   55.6316 C   0  0  0  0  0  0  0  0  0  0  0  0
   -2.2580   45.8339   55.5365 C   0  0  0  0  0  0  0  0  0  0  0  0
   -0.9054   46.1639   55.3866 C   0  0  0  0  0  0  0  0  0  0  0  0
    0.0827   45.1888   55.3279 C   0  0  0  0  0  0  0  0  0  0  0  0
    1.3693   45.5431   55.1842 N   0  0  0  0  0  0  0  0  0  0  0  0
    2.2869   44.5708   55.1246 C   0  0  0  0  0  0  0  0  0  0  0  0
    3.5967   45.0193   54.9698 N   0  0  0  0  0  0  0  0  0  0  0  0
    4.0207   45.2777   53.6015 C   0  0  1  0  0  0  0  0  0  0  0  0
    4.3727   46.7638   53.4156 C   0  0  0  0  0  0  0  0  0  0  0  0
    5.5662   47.1887   54.2755 C   0  0  0  0  0  0  0  0  0  0  0  0
    6.8299   46.3586   54.0070 C   0  0  2  0  0  0  0  0  0  0  0  0
    7.4396   46.6380   52.6130 N   0  0  0  0  0  4  0  0  0  0  0  0
    7.7547   48.0851   52.2915 C   0  0  0  0  0  0  0  0  0  0  0  0
    8.9096   48.5926   53.1434 C   0  0  0  0  0  0  0  0  0  0  0  0
   10.0625   47.5951   53.2373 C   0  0  0  0  0  0  0  0  0  0  0  0
    9.9486   46.5064   52.1803 C   0  0  0  0  0  0  0  0  0  0  0  0
    8.6377   45.7333   52.3016 C   0  0  0  0  0  0  0  0  0  0  0  0
    6.4895   44.8570   54.1338 C   0  0  0  0  0  0  0  0  0  0  0  0
    5.2696   44.4250   53.3101 C   0  0  0  0  0  0  0  0  0  0  0  0
    2.0132   43.2663   55.2172 N   0  0  0  0  0  0  0  0  0  0  0  0
    0.7153   42.9332   55.3617 C   0  0  0  0  0  0  0  0  0  0  0  0
   -0.3145   43.8544   55.4247 C   0  0  0  0  0  0  0  0  0  0  0  0
   -1.6720   43.5038   55.5757 C   0  0  0  0  0  0  0  0  0  0  0  0
   -3.7017   44.2364   55.7502 H   0  0  0  0  0  0  0  0  0  0  0  0
   -3.0170   46.6289   55.5789 H   0  0  0  0  0  0  0  0  0  0  0  0
   -0.6176   47.2230   55.3135 H   0  0  0  0  0  0  0  0  0  0  0  0
    4.1254   44.3123   55.4795 H   0  0  0  0  0  0  0  0  0  0  0  0
    3.2023   45.0210   52.9128 H   0  0  0  0  0  0  0  0  0  0  0  0
    4.6180   46.9398   52.3578 H   0  0  0  0  0  0  0  0  0  0  0  0
    3.5022   47.3584   53.7296 H   0  0  0  0  0  0  0  0  0  0  0  0
    5.7903   48.2449   54.0654 H   0  0  0  0  0  0  0  0  0  0  0  0
    5.2860   47.0275   55.3269 H   0  0  0  0  0  0  0  0  0  0  0  0
    7.5829   46.6496   54.7542 H   0  0  0  0  0  0  0  0  0  0  0  0
    6.7145   46.3798   51.9341 H   0  0  0  0  0  0  0  0  0  0  0  0
    8.0281   48.1666   51.2291 H   0  0  0  0  0  0  0  0  0  0  0  0
    6.8648   48.6946   52.5074 H   0  0  0  0  0  0  0  0  0  0  0  0
    9.2882   49.5259   52.7011 H   0  0  0  0  0  0  0  0  0  0  0  0
    8.5245   48.7486   54.1619 H   0  0  0  0  0  0  0  0  0  0  0  0
   11.0118   48.1324   53.0955 H   0  0  0  0  0  0  0  0  0  0  0  0
   10.0252   47.1183   54.2278 H   0  0  0  0  0  0  0  0  0  0  0  0
    9.9973   46.9707   51.1843 H   0  0  0  0  0  0  0  0  0  0  0  0
   10.7778   45.7988   52.3277 H   0  0  0  0  0  0  0  0  0  0  0  0
    8.4475   45.2132   51.3512 H   0  0  0  0  0  0  0  0  0  0  0  0
    8.7460   45.0281   53.1388 H   0  0  0  0  0  0  0  0  0  0  0  0
    7.3595   44.2748   53.7959 H   0  0  0  0  0  0  0  0  0  0  0  0
    6.2431   44.6733   55.1900 H   0  0  0  0  0  0  0  0  0  0  0  0
    5.5163   44.5167   52.2420 H   0  0  0  0  0  0  0  0  0  0  0  0
    5.0338   43.3868   53.5867 H   0  0  0  0  0  0  0  0  0  0  0  0
    0.4599   41.8657   55.4337 H   0  0  0  0  0  0  0  0  0  0  0  0
   -1.9639   42.4458   55.6490 H   0  0  0  0  0  0  0  0  0  0  0  0
  1  2  2  0
  2  3  1  0
  3  4  2  0
  4  5  1  0
  5  6  2  0
  6  7  1  0
  7  8  1  0
  8  9  1  0
  9 10  1  0
 10 11  1  0
 11 12  1  0
 12 13  1  0
 13 14  1  0
 14 15  1  0
 15 16  1  0
 16 17  1  0
 11 18  1  0
 18 19  1  0
  6 20  1  0
 20 21  2  0
 21 22  1  0
 22 23  2  0
 23  1  1  0
 22  4  1  0
 19  8  1  0
 17 12  1  0
  1 24  1  0
  2 25  1  0
  3 26  1  0
  7 27  1  0
  8 28  1  6
  9 29  1  0
  9 30  1  0
 10 31  1  0
 10 32  1  0
 11 33  1  1
 12 34  1  0
 13 35  1  0
 13 36  1  0
 14 37  1  0
 14 38  1  0
 15 39  1  0
 15 40  1  0
 16 41  1  0
 16 42  1  0
 17 43  1  0
 17 44  1  0
 18 45  1  0
 18 46  1  0
 19 47  1  0
 19 48  1  0
 21 49  1  0
 23 50  1  0
M  CHG  1  12   1
M  END
>  <meeko>  (4) 
{"is_sidechain": false}

>  <CID>  (4) 
Z2654643499

>  <pose_index>  (4) 
5

>  <docking_score>  (4) 
-8.328

>  <rmsd_to_best_selected>  (4) 
0.34995649002263574

>  <MWT>  (4) 
311.4529999999995

>  <TPSA>  (4) 
42.25

>  <logP>  (4) 
2.4216999999999995

>  <HBD>  (4) 
2

>  <HBA>  (4) 
3

>  <SMILES>  (4) 
[H]c1c([H])c([H])c2c([H])nc(N([H])C3([H])C([H])([H])C([H])([H])C([H])([N+]4([H])C([H])([H])C([H])([H])C([H])([H])C([H])([H])C4([H])[H])C([H])([H])C3([H])[H])nc2c1[H]

$$$$
Z2654643499_pose6
     RDKit          3D

 50 53  0  0  0  0  0  0  0  0999 V2000
   -2.4113   45.0181   55.8237 C   0  0  0  0  0  0  0  0  0  0  0  0
   -1.9104   46.2272   55.3518 C   0  0  0  0  0  0  0  0  0  0  0  0
   -0.6161   46.2890   54.8250 C   0  0  0  0  0  0  0  0  0  0  0  0
    0.2006   45.1667   54.7573 C   0  0  0  0  0  0  0  0  0  0  0  0
    1.4386   45.2647   54.2456 N   0  0  0  0  0  0  0  0  0  0  0  0
    2.1863   44.1573   54.1918 C   0  0  0  0  0  0  0  0  0  0  0  0
    3.4544   44.3412   53.6445 N   0  0  0  0  0  0  0  0  0  0  0  0
    4.5131   44.6612   54.5910 C   0  0  1  0  0  0  0  0  0  0  0  0
    5.8648   44.1155   54.0962 C   0  0  0  0  0  0  0  0  0  0  0  0
    6.3083   44.7688   52.7852 C   0  0  0  0  0  0  0  0  0  0  0  0
    6.4135   46.2984   52.8768 C   0  0  2  0  0  0  0  0  0  0  0  0
    7.5851   46.7600   53.7733 N   0  0  0  0  0  4  0  0  0  0  0  0
    8.9113   46.0548   53.5690 C   0  0  0  0  0  0  0  0  0  0  0  0
    9.5132   46.4098   52.2169 C   0  0  0  0  0  0  0  0  0  0  0  0
    9.4205   47.9008   51.8968 C   0  0  0  0  0  0  0  0  0  0  0  0
    9.0885   48.7188   53.1350 C   0  0  0  0  0  0  0  0  0  0  0  0
    7.7689   48.2830   53.7671 C   0  0  0  0  0  0  0  0  0  0  0  0
    5.0851   46.8677   53.4237 C   0  0  0  0  0  0  0  0  0  0  0  0
    4.6057   46.1941   54.7154 C   0  0  0  0  0  0  0  0  0  0  0  0
    1.7940   42.9576   54.6305 N   0  0  0  0  0  0  0  0  0  0  0  0
    0.5487   42.8824   55.1395 C   0  0  0  0  0  0  0  0  0  0  0  0
   -0.3125   43.9598   55.2342 C   0  0  0  0  0  0  0  0  0  0  0  0
   -1.6158   43.8781   55.7680 C   0  0  0  0  0  0  0  0  0  0  0  0
   -3.4288   44.9638   56.2379 H   0  0  0  0  0  0  0  0  0  0  0  0
   -2.5318   47.1339   55.3929 H   0  0  0  0  0  0  0  0  0  0  0  0
   -0.2345   47.2518   54.4544 H   0  0  0  0  0  0  0  0  0  0  0  0
    3.2741   45.0325   52.9180 H   0  0  0  0  0  0  0  0  0  0  0  0
    4.2829   44.2020   55.5637 H   0  0  0  0  0  0  0  0  0  0  0  0
    6.6276   44.3099   54.8645 H   0  0  0  0  0  0  0  0  0  0  0  0
    5.7463   43.0374   53.9125 H   0  0  0  0  0  0  0  0  0  0  0  0
    7.2945   44.3664   52.5102 H   0  0  0  0  0  0  0  0  0  0  0  0
    5.5427   44.5384   52.0297 H   0  0  0  0  0  0  0  0  0  0  0  0
    6.6107   46.6794   51.8639 H   0  0  0  0  0  0  0  0  0  0  0  0
    7.3164   46.5201   54.7341 H   0  0  0  0  0  0  0  0  0  0  0  0
    9.6075   46.3598   54.3643 H   0  0  0  0  0  0  0  0  0  0  0  0
    8.7405   44.9687   53.6032 H   0  0  0  0  0  0  0  0  0  0  0  0
   10.5733   46.1163   52.2168 H   0  0  0  0  0  0  0  0  0  0  0  0
    8.9387   45.8713   51.4488 H   0  0  0  0  0  0  0  0  0  0  0  0
   10.3857   48.2400   51.4928 H   0  0  0  0  0  0  0  0  0  0  0  0
    8.6148   48.0458   51.1620 H   0  0  0  0  0  0  0  0  0  0  0  0
    9.8952   48.5919   53.8721 H   0  0  0  0  0  0  0  0  0  0  0  0
    8.9907   49.7718   52.8324 H   0  0  0  0  0  0  0  0  0  0  0  0
    7.7409   48.6443   54.8057 H   0  0  0  0  0  0  0  0  0  0  0  0
    6.9557   48.7116   53.1629 H   0  0  0  0  0  0  0  0  0  0  0  0
    5.2242   47.9405   53.6234 H   0  0  0  0  0  0  0  0  0  0  0  0
    4.3171   46.6767   52.6597 H   0  0  0  0  0  0  0  0  0  0  0  0
    5.3119   46.4392   55.5224 H   0  0  0  0  0  0  0  0  0  0  0  0
    3.5946   46.5706   54.9294 H   0  0  0  0  0  0  0  0  0  0  0  0
    0.1962   41.9053   55.5014 H   0  0  0  0  0  0  0  0  0  0  0  0
   -2.0015   42.9170   56.1387 H   0  0  0  0  0  0  0  0  0  0  0  0
  1  2  2  0
  2  3  1  0
  3  4  2  0
  4  5  1  0
  5  6  2  0
  6  7  1  0
  7  8  1  0
  8  9  1  0
  9 10  1  0
 10 11  1  0
 11 12  1  0
 12 13  1  0
 13 14  1  0
 14 15  1  0
 15 16  1  0
 16 17  1  0
 11 18  1  0
 18 19  1  0
  6 20  1  0
 20 21  2  0
 21 22  1  0
 22 23  2  0
 23  1  1  0
 22  4  1  0
 19  8  1  0
 17 12  1  0
  1 24  1  0
  2 25  1  0
  3 26  1  0
  7 27  1  0
  8 28  1  1
  9 29  1  0
  9 30  1  0
 10 31  1  0
 10 32  1  0
 11 33  1  6
 12 34  1  0
 13 35  1  0
 13 36  1  0
 14 37  1  0
 14 38  1  0
 15 39  1  0
 15 40  1  0
 16 41  1  0
 16 42  1  0
 17 43  1  0
 17 44  1  0
 18 45  1  0
 18 46  1  0
 19 47  1  0
 19 48  1  0
 21 49  1  0
 23 50  1  0
M  CHG  1  12   1
M  END
>  <meeko>  (5) 
{"is_sidechain": false}

>  <CID>  (5) 
Z2654643499

>  <pose_index>  (5) 
6

>  <docking_score>  (5) 
-8.204

>  <rmsd_to_best_selected>  (5) 
1.7240511588175393

>  <MWT>  (5) 
311.4529999999995

>  <TPSA>  (5) 
42.25

>  <logP>  (5) 
2.4216999999999995

>  <HBD>  (5) 
2

>  <HBA>  (5) 
3

>  <SMILES>  (5) 
[H]c1c([H])c([H])c2c([H])nc(N([H])C3([H])C([H])([H])C([H])([H])C([H])([N+]4([H])C([H])([H])C([H])([H])C([H])([H])C([H])([H])C4([H])[H])C([H])([H])C3([H])[H])nc2c1[H]

$$$$
Z2654643499_pose7
     RDKit          3D

 50 53  0  0  0  0  0  0  0  0999 V2000
   -2.3698   44.1680   56.2404 C   0  0  0  0  0  0  0  0  0  0  0  0
   -1.8927   45.4495   56.4890 C   0  0  0  0  0  0  0  0  0  0  0  0
   -0.6648   45.8549   55.9540 C   0  0  0  0  0  0  0  0  0  0  0  0
    0.1071   45.0060   55.1695 C   0  0  0  0  0  0  0  0  0  0  0  0
    1.2802   45.4296   54.6740 N   0  0  0  0  0  0  0  0  0  0  0  0
    1.9860   44.5816   53.9170 C   0  0  0  0  0  0  0  0  0  0  0  0
    3.1885   45.0975   53.4363 N   0  0  0  0  0  0  0  0  0  0  0  0
    4.1262   45.5638   54.4470 C   0  0  1  0  0  0  0  0  0  0  0  0
    5.4095   44.7142   54.4281 C   0  0  0  0  0  0  0  0  0  0  0  0
    6.1701   44.8438   53.1061 C   0  0  0  0  0  0  0  0  0  0  0  0
    6.5496   46.2923   52.7659 C   0  0  2  0  0  0  0  0  0  0  0  0
    7.6329   46.8602   53.7120 N   0  0  0  0  0  4  0  0  0  0  0  0
    8.8739   46.0117   53.9050 C   0  0  0  0  0  0  0  0  0  0  0  0
    9.7012   45.9605   52.6277 C   0  0  0  0  0  0  0  0  0  0  0  0
    9.8434   47.3245   51.9554 C   0  0  0  0  0  0  0  0  0  0  0  0
    9.4468   48.4546   52.8935 C   0  0  0  0  0  0  0  0  0  0  0  0
    8.0069   48.3094   53.3792 C   0  0  0  0  0  0  0  0  0  0  0  0
    5.2854   47.1779   52.8318 C   0  0  0  0  0  0  0  0  0  0  0  0
    4.4895   47.0281   54.1339 C   0  0  0  0  0  0  0  0  0  0  0  0
    1.6133   43.3306   53.6327 N   0  0  0  0  0  0  0  0  0  0  0  0
    0.4324   42.9273   54.1410 C   0  0  0  0  0  0  0  0  0  0  0  0
   -0.3825   43.7219   54.9272 C   0  0  0  0  0  0  0  0  0  0  0  0
   -1.6177   43.2966   55.4576 C   0  0  0  0  0  0  0  0  0  0  0  0
   -3.3343   43.8447   56.6590 H   0  0  0  0  0  0  0  0  0  0  0  0
   -2.4803   46.1451   57.1062 H   0  0  0  0  0  0  0  0  0  0  0  0
   -0.3008   46.8724   56.1598 H   0  0  0  0  0  0  0  0  0  0  0  0
    2.8675   45.7921   52.7630 H   0  0  0  0  0  0  0  0  0  0  0  0
    3.6619   45.4787   55.4405 H   0  0  0  0  0  0  0  0  0  0  0  0
    6.0649   45.0443   55.2476 H   0  0  0  0  0  0  0  0  0  0  0  0
    5.1183   43.6602   54.5479 H   0  0  0  0  0  0  0  0  0  0  0  0
    7.0920   44.2475   53.1733 H   0  0  0  0  0  0  0  0  0  0  0  0
    5.5028   44.4849   52.3087 H   0  0  0  0  0  0  0  0  0  0  0  0
    6.9725   46.2955   51.7505 H   0  0  0  0  0  0  0  0  0  0  0  0
    7.2027   46.8932   54.6432 H   0  0  0  0  0  0  0  0  0  0  0  0
    9.4837   46.4439   54.7121 H   0  0  0  0  0  0  0  0  0  0  0  0
    8.5633   44.9887   54.1639 H   0  0  0  0  0  0  0  0  0  0  0  0
   10.7051   45.5849   52.8749 H   0  0  0  0  0  0  0  0  0  0  0  0
    9.1779   45.2983   51.9223 H   0  0  0  0  0  0  0  0  0  0  0  0
   10.8909   47.4648   51.6502 H   0  0  0  0  0  0  0  0  0  0  0  0
    9.1737   47.3500   51.0831 H   0  0  0  0  0  0  0  0  0  0  0  0
   10.1188   48.4468   53.7643 H   0  0  0  0  0  0  0  0  0  0  0  0
    9.5272   49.4021   52.3405 H   0  0  0  0  0  0  0  0  0  0  0  0
    7.8781   48.9218   54.2839 H   0  0  0  0  0  0  0  0  0  0  0  0
    7.3481   48.6413   52.5632 H   0  0  0  0  0  0  0  0  0  0  0  0
    5.5934   48.2293   52.7331 H   0  0  0  0  0  0  0  0  0  0  0  0
    4.6248   46.8531   52.0145 H   0  0  0  0  0  0  0  0  0  0  0  0
    5.0939   47.4252   54.9628 H   0  0  0  0  0  0  0  0  0  0  0  0
    3.5481   47.5840   54.0123 H   0  0  0  0  0  0  0  0  0  0  0  0
    0.0960   41.9041   53.9173 H   0  0  0  0  0  0  0  0  0  0  0  0
   -1.9856   42.2802   55.2536 H   0  0  0  0  0  0  0  0  0  0  0  0
  1  2  2  0
  2  3  1  0
  3  4  2  0
  4  5  1  0
  5  6  2  0
  6  7  1  0
  7  8  1  0
  8  9  1  0
  9 10  1  0
 10 11  1  0
 11 12  1  0
 12 13  1  0
 13 14  1  0
 14 15  1  0
 15 16  1  0
 16 17  1  0
 11 18  1  0
 18 19  1  0
  6 20  1  0
 20 21  2  0
 21 22  1  0
 22 23  2  0
 23  1  1  0
 22  4  1  0
 19  8  1  0
 17 12  1  0
  1 24  1  0
  2 25  1  0
  3 26  1  0
  7 27  1  0
  8 28  1  1
  9 29  1  0
  9 30  1  0
 10 31  1  0
 10 32  1  0
 11 33  1  6
 12 34  1  0
 13 35  1  0
 13 36  1  0
 14 37  1  0
 14 38  1  0
 15 39  1  0
 15 40  1  0
 16 41  1  0
 16 42  1  0
 17 43  1  0
 17 44  1  0
 18 45  1  0
 18 46  1  0
 19 47  1  0
 19 48  1  0
 21 49  1  0
 23 50  1  0
M  CHG  1  12   1
M  END
>  <meeko>  (6) 
{"is_sidechain": false}

>  <CID>  (6) 
Z2654643499

>  <pose_index>  (6) 
7

>  <docking_score>  (6) 
-7.93

>  <rmsd_to_best_selected>  (6) 
1.4470088523896576

>  <MWT>  (6) 
311.4529999999995

>  <TPSA>  (6) 
42.25

>  <logP>  (6) 
2.4216999999999995

>  <HBD>  (6) 
2

>  <HBA>  (6) 
3

>  <SMILES>  (6) 
[H]c1c([H])c([H])c2c([H])nc(N([H])C3([H])C([H])([H])C([H])([H])C([H])([N+]4([H])C([H])([H])C([H])([H])C([H])([H])C([H])([H])C4([H])[H])C([H])([H])C3([H])[H])nc2c1[H]

$$$$
Z2654643499_pose9
     RDKit          3D

 50 53  0  0  0  0  0  0  0  0999 V2000
   -2.4127   44.8745   55.8117 C   0  0  0  0  0  0  0  0  0  0  0  0
   -1.6000   44.9522   56.9371 C   0  0  0  0  0  0  0  0  0  0  0  0
   -0.2127   44.8191   56.8088 C   0  0  0  0  0  0  0  0  0  0  0  0
    0.3899   44.6104   55.5743 C   0  0  0  0  0  0  0  0  0  0  0  0
    1.7247   44.4872   55.4892 N   0  0  0  0  0  0  0  0  0  0  0  0
    2.2623   44.2954   54.2793 C   0  0  0  0  0  0  0  0  0  0  0  0
    3.6518   44.1821   54.2743 N   0  0  0  0  0  0  0  0  0  0  0  0
    4.3761   45.2467   54.9543 C   0  0  1  0  0  0  0  0  0  0  0  0
    5.8440   44.8439   55.1800 C   0  0  0  0  0  0  0  0  0  0  0  0
    6.5984   44.6431   53.8627 C   0  0  0  0  0  0  0  0  0  0  0  0
    6.5749   45.8843   52.9579 C   0  0  2  0  0  0  0  0  0  0  0  0
    7.4129   47.0508   53.5294 N   0  0  0  0  0  4  0  0  0  0  0  0
    8.7922   46.7008   54.0510 C   0  0  0  0  0  0  0  0  0  0  0  0
    9.7181   46.3005   52.9115 C   0  0  0  0  0  0  0  0  0  0  0  0
    9.6071   47.2235   51.7001 C   0  0  0  0  0  0  0  0  0  0  0  0
    8.8822   48.5161   52.0470 C   0  0  0  0  0  0  0  0  0  0  0  0
    7.4760   48.2533   52.5787 C   0  0  0  0  0  0  0  0  0  0  0  0
    5.1130   46.3424   52.7600 C   0  0  0  0  0  0  0  0  0  0  0  0
    4.3313   46.5060   54.0696 C   0  0  0  0  0  0  0  0  0  0  0  0
    1.5618   44.1983   53.1463 N   0  0  0  0  0  0  0  0  0  0  0  0
    0.2246   44.3238   53.2557 C   0  0  0  0  0  0  0  0  0  0  0  0
   -0.4364   44.5352   54.4523 C   0  0  0  0  0  0  0  0  0  0  0  0
   -1.8356   44.6661   54.5630 C   0  0  0  0  0  0  0  0  0  0  0  0
   -3.5037   44.9769   55.9079 H   0  0  0  0  0  0  0  0  0  0  0  0
   -2.0473   45.1183   57.9282 H   0  0  0  0  0  0  0  0  0  0  0  0
    0.4170   44.8814   57.7086 H   0  0  0  0  0  0  0  0  0  0  0  0
    3.8514   44.0625   53.2818 H   0  0  0  0  0  0  0  0  0  0  0  0
    3.9092   45.4378   55.9318 H   0  0  0  0  0  0  0  0  0  0  0  0
    6.3437   45.6357   55.7572 H   0  0  0  0  0  0  0  0  0  0  0  0
    5.8517   43.8870   55.7225 H   0  0  0  0  0  0  0  0  0  0  0  0
    7.6457   44.3981   54.0933 H   0  0  0  0  0  0  0  0  0  0  0  0
    6.0950   43.8311   53.3176 H   0  0  0  0  0  0  0  0  0  0  0  0
    7.0258   45.6023   51.9949 H   0  0  0  0  0  0  0  0  0  0  0  0
    6.9063   47.3821   54.3575 H   0  0  0  0  0  0  0  0  0  0  0  0
    9.2144   47.5753   54.5679 H   0  0  0  0  0  0  0  0  0  0  0  0
    8.7009   45.8519   54.7445 H   0  0  0  0  0  0  0  0  0  0  0  0
   10.7552   46.3255   53.2773 H   0  0  0  0  0  0  0  0  0  0  0  0
    9.4218   45.2926   52.5854 H   0  0  0  0  0  0  0  0  0  0  0  0
   10.6185   47.4661   51.3420 H   0  0  0  0  0  0  0  0  0  0  0  0
    9.0300   46.7028   50.9218 H   0  0  0  0  0  0  0  0  0  0  0  0
    9.4587   49.0522   52.8153 H   0  0  0  0  0  0  0  0  0  0  0  0
    8.7936   49.1150   51.1286 H   0  0  0  0  0  0  0  0  0  0  0  0
    7.1325   49.1472   53.1201 H   0  0  0  0  0  0  0  0  0  0  0  0
    6.8334   48.0260   51.7154 H   0  0  0  0  0  0  0  0  0  0  0  0
    5.1209   47.3106   52.2379 H   0  0  0  0  0  0  0  0  0  0  0  0
    4.6068   45.5554   52.1817 H   0  0  0  0  0  0  0  0  0  0  0  0
    4.7624   47.3466   54.6332 H   0  0  0  0  0  0  0  0  0  0  0  0
    3.2789   46.6874   53.8059 H   0  0  0  0  0  0  0  0  0  0  0  0
   -0.3778   44.2539   52.3380 H   0  0  0  0  0  0  0  0  0  0  0  0
   -2.4687   44.6038   53.6656 H   0  0  0  0  0  0  0  0  0  0  0  0
  1  2  2  0
  2  3  1  0
  3  4  2  0
  4  5  1  0
  5  6  2  0
  6  7  1  0
  7  8  1  0
  8  9  1  0
  9 10  1  0
 10 11  1  0
 11 12  1  0
 12 13  1  0
 13 14  1  0
 14 15  1  0
 15 16  1  0
 16 17  1  0
 11 18  1  0
 18 19  1  0
  6 20  1  0
 20 21  2  0
 21 22  1  0
 22 23  2  0
 23  1  1  0
 22  4  1  0
 19  8  1  0
 17 12  1  0
  1 24  1  0
  2 25  1  0
  3 26  1  0
  7 27  1  0
  8 28  1  1
  9 29  1  0
  9 30  1  0
 10 31  1  0
 10 32  1  0
 11 33  1  6
 12 34  1  0
 13 35  1  0
 13 36  1  0
 14 37  1  0
 14 38  1  0
 15 39  1  0
 15 40  1  0
 16 41  1  0
 16 42  1  0
 17 43  1  0
 17 44  1  0
 18 45  1  0
 18 46  1  0
 19 47  1  0
 19 48  1  0
 21 49  1  0
 23 50  1  0
M  CHG  1  12   1
M  END
>  <meeko>  (7) 
{"is_sidechain": false}

>  <CID>  (7) 
Z2654643499

>  <pose_index>  (7) 
9

>  <docking_score>  (7) 
-7.703

>  <rmsd_to_best_selected>  (7) 
0.9225012737737256

>  <MWT>  (7) 
311.4529999999995

>  <TPSA>  (7) 
42.25

>  <logP>  (7) 
2.4216999999999995

>  <HBD>  (7) 
2

>  <HBA>  (7) 
3

>  <SMILES>  (7) 
[H]c1c([H])c([H])c2c([H])nc(N([H])C3([H])C([H])([H])C([H])([H])C([H])([N+]4([H])C([H])([H])C([H])([H])C([H])([H])C([H])([H])C4([H])[H])C([H])([H])C3([H])[H])nc2c1[H]

$$$$
Z2654643499_pose10
     RDKit          3D

 50 53  0  0  0  0  0  0  0  0999 V2000
   -2.2872   45.5094   54.9485 C   0  0  0  0  0  0  0  0  0  0  0  0
   -1.5969   46.3803   54.1122 C   0  0  0  0  0  0  0  0  0  0  0  0
   -0.2313   46.1882   53.8771 C   0  0  0  0  0  0  0  0  0  0  0  0
    0.4720   45.1410   54.4605 C   0  0  0  0  0  0  0  0  0  0  0  0
    1.7821   44.9887   54.2132 N   0  0  0  0  0  0  0  0  0  0  0  0
    2.4168   43.9622   54.7895 C   0  0  0  0  0  0  0  0  0  0  0  0
    3.7721   43.8698   54.4785 N   0  0  0  0  0  0  0  0  0  0  0  0
    4.6577   44.7377   55.2416 C   0  0  1  0  0  0  0  0  0  0  0  0
    6.1096   44.2350   55.1604 C   0  0  0  0  0  0  0  0  0  0  0  0
    6.6600   44.2816   53.7329 C   0  0  0  0  0  0  0  0  0  0  0  0
    6.6028   45.6834   53.1081 C   0  0  2  0  0  0  0  0  0  0  0  0
    7.5926   46.6695   53.7703 N   0  0  0  0  0  4  0  0  0  0  0  0
    9.0653   46.4224   53.5126 C   0  0  0  0  0  0  0  0  0  0  0  0
    9.4163   46.6993   52.0580 C   0  0  0  0  0  0  0  0  0  0  0  0
    8.7867   47.9845   51.5269 C   0  0  0  0  0  0  0  0  0  0  0  0
    8.2687   48.8623   52.6570 C   0  0  0  0  0  0  0  0  0  0  0  0
    7.2294   48.1356   53.5076 C   0  0  0  0  0  0  0  0  0  0  0  0
    5.1637   46.2341   53.2257 C   0  0  0  0  0  0  0  0  0  0  0  0
    4.5831   46.1549   54.6431 C   0  0  0  0  0  0  0  0  0  0  0  0
    1.8396   43.0819   55.6134 N   0  0  0  0  0  0  0  0  0  0  0  0
    0.5236   43.2543   55.8484 C   0  0  0  0  0  0  0  0  0  0  0  0
   -0.2318   44.2737   55.2983 C   0  0  0  0  0  0  0  0  0  0  0  0
   -1.6084   44.4512   55.5466 C   0  0  0  0  0  0  0  0  0  0  0  0
   -3.3612   45.6555   55.1358 H   0  0  0  0  0  0  0  0  0  0  0  0
   -2.1245   47.2198   53.6359 H   0  0  0  0  0  0  0  0  0  0  0  0
    0.3003   46.8850   53.2124 H   0  0  0  0  0  0  0  0  0  0  0  0
    3.7670   44.0059   53.4682 H   0  0  0  0  0  0  0  0  0  0  0  0
    4.3443   44.7407   56.2960 H   0  0  0  0  0  0  0  0  0  0  0  0
    6.7395   44.8671   55.8035 H   0  0  0  0  0  0  0  0  0  0  0  0
    6.1223   43.1865   55.4926 H   0  0  0  0  0  0  0  0  0  0  0  0
    7.7085   43.9496   53.7515 H   0  0  0  0  0  0  0  0  0  0  0  0
    6.0291   43.6234   53.1176 H   0  0  0  0  0  0  0  0  0  0  0  0
    6.8969   45.5890   52.0524 H   0  0  0  0  0  0  0  0  0  0  0  0
    7.4874   46.5359   54.7823 H   0  0  0  0  0  0  0  0  0  0  0  0
    9.6600   47.0848   54.1588 H   0  0  0  0  0  0  0  0  0  0  0  0
    9.2885   45.3682   53.7333 H   0  0  0  0  0  0  0  0  0  0  0  0
   10.5097   46.7825   51.9709 H   0  0  0  0  0  0  0  0  0  0  0  0
    9.0191   45.8663   51.4593 H   0  0  0  0  0  0  0  0  0  0  0  0
    9.5436   48.5444   50.9580 H   0  0  0  0  0  0  0  0  0  0  0  0
    7.9359   47.7116   50.8853 H   0  0  0  0  0  0  0  0  0  0  0  0
    9.1139   49.1527   53.2984 H   0  0  0  0  0  0  0  0  0  0  0  0
    7.7890   49.7462   52.2115 H   0  0  0  0  0  0  0  0  0  0  0  0
    7.1420   48.6541   54.4738 H   0  0  0  0  0  0  0  0  0  0  0  0
    6.2811   48.1459   52.9502 H   0  0  0  0  0  0  0  0  0  0  0  0
    5.1695   47.2884   52.9120 H   0  0  0  0  0  0  0  0  0  0  0  0
    4.5277   45.6066   52.5841 H   0  0  0  0  0  0  0  0  0  0  0  0
    5.1471   46.8405   55.2925 H   0  0  0  0  0  0  0  0  0  0  0  0
    3.5204   46.4321   54.5810 H   0  0  0  0  0  0  0  0  0  0  0  0
    0.0202   42.5413   56.5179 H   0  0  0  0  0  0  0  0  0  0  0  0
   -2.1438   43.7564   56.2103 H   0  0  0  0  0  0  0  0  0  0  0  0
  1  2  2  0
  2  3  1  0
  3  4  2  0
  4  5  1  0
  5  6  2  0
  6  7  1  0
  7  8  1  0
  8  9  1  0
  9 10  1  0
 10 11  1  0
 11 12  1  0
 12 13  1  0
 13 14  1  0
 14 15  1  0
 15 16  1  0
 16 17  1  0
 11 18  1  0
 18 19  1  0
  6 20  1  0
 20 21  2  0
 21 22  1  0
 22 23  2  0
 23  1  1  0
 22  4  1  0
 19  8  1  0
 17 12  1  0
  1 24  1  0
  2 25  1  0
  3 26  1  0
  7 27  1  0
  8 28  1  1
  9 29  1  0
  9 30  1  0
 10 31  1  0
 10 32  1  0
 11 33  1  6
 12 34  1  0
 13 35  1  0
 13 36  1  0
 14 37  1  0
 14 38  1  0
 15 39  1  0
 15 40  1  0
 16 41  1  0
 16 42  1  0
 17 43  1  0
 17 44  1  0
 18 45  1  0
 18 46  1  0
 19 47  1  0
 19 48  1  0
 21 49  1  0
 23 50  1  0
M  CHG  1  12   1
M  END
>  <meeko>  (8) 
{"is_sidechain": false}

>  <CID>  (8) 
Z2654643499

>  <pose_index>  (8) 
10

>  <docking_score>  (8) 
-7.654

>  <rmsd_to_best_selected>  (8) 
1.9337933214161926

>  <MWT>  (8) 
311.4529999999995

>  <TPSA>  (8) 
42.25

>  <logP>  (8) 
2.4216999999999995

>  <HBD>  (8) 
2

>  <HBA>  (8) 
3

>  <SMILES>  (8) 
[H]c1c([H])c([H])c2c([H])nc(N([H])C3([H])C([H])([H])C([H])([H])C([H])([N+]4([H])C([H])([H])C([H])([H])C([H])([H])C([H])([H])C4([H])[H])C([H])([H])C3([H])[H])nc2c1[H]

$$$$
