Z2994634090_pose2
     RDKit          3D

 40 42  0  0  0  0  0  0  0  0999 V2000
    1.3162   44.3686   52.2816 C   0  0  0  0  0  0  0  0  0  0  0  0
    2.3763   43.9400   53.1266 O   0  0  0  0  0  0  0  0  0  0  0  0
    2.6465   44.7142   54.2321 C   0  0  0  0  0  0  0  0  0  0  0  0
    1.7441   44.9807   55.2594 C   0  0  0  0  0  0  0  0  0  0  0  0
    2.1639   45.7795   56.3102 C   0  0  0  0  0  0  0  0  0  0  0  0
    3.3947   46.3193   56.4008 N   0  0  0  0  0  0  0  0  0  0  0  0
    4.2584   46.0484   55.3872 C   0  0  0  0  0  0  0  0  0  0  0  0
    3.9407   45.2596   54.2876 C   0  0  0  0  0  0  0  0  0  0  0  0
    4.8213   44.9656   53.2253 N   0  0  0  0  0  0  0  0  0  0  0  0
    4.8773   45.5742   51.9908 C   0  0  0  0  0  0  0  0  0  0  0  0
    4.1873   46.5118   51.6119 O   0  0  0  0  0  0  0  0  0  0  0  0
    5.9030   45.0169   51.0748 C   0  0  0  0  0  0  0  0  0  0  0  0
    5.6603   43.8272   50.3737 C   0  0  0  0  0  0  0  0  0  0  0  0
    4.2297   42.8803   50.5842 Cl  0  0  0  0  0  0  0  0  0  0  0  0
    6.6295   43.3229   49.4960 C   0  0  0  0  0  0  0  0  0  0  0  0
    7.8416   43.9899   49.3209 C   0  0  0  0  0  0  0  0  0  0  0  0
    8.0904   45.1685   50.0202 C   0  0  0  0  0  0  0  0  0  0  0  0
    7.1174   45.6931   50.8768 C   0  0  0  0  0  0  0  0  0  0  0  0
    7.3894   46.8344   51.5881 O   0  0  0  0  0  0  0  0  0  0  0  0
    8.2215   46.5683   52.7259 C   0  0  0  0  0  0  0  0  0  0  0  0
    9.5949   47.1476   52.5332 C   0  0  0  0  0  0  0  0  0  0  0  0
   10.6738   46.9655   53.5704 C   0  0  0  0  0  0  0  0  0  0  0  0
   10.8013   46.2906   52.2295 C   0  0  0  0  0  0  0  0  0  0  0  0
    0.4544   44.6664   52.8970 H   0  0  0  0  0  0  0  0  0  0  0  0
    1.6509   45.2264   51.6798 H   0  0  0  0  0  0  0  0  0  0  0  0
    1.0231   43.5447   51.6144 H   0  0  0  0  0  0  0  0  0  0  0  0
    0.7249   44.5675   55.2367 H   0  0  0  0  0  0  0  0  0  0  0  0
    1.4486   45.9858   57.1200 H   0  0  0  0  0  0  0  0  0  0  0  0
    5.2693   46.4790   55.4401 H   0  0  0  0  0  0  0  0  0  0  0  0
    5.5413   44.2855   53.4578 H   0  0  0  0  0  0  0  0  0  0  0  0
    6.4327   42.3939   48.9410 H   0  0  0  0  0  0  0  0  0  0  0  0
    8.5989   43.5865   48.6325 H   0  0  0  0  0  0  0  0  0  0  0  0
    9.0529   45.6871   49.8986 H   0  0  0  0  0  0  0  0  0  0  0  0
    7.7635   47.0169   53.6198 H   0  0  0  0  0  0  0  0  0  0  0  0
    8.3134   45.4788   52.8470 H   0  0  0  0  0  0  0  0  0  0  0  0
    9.1146   48.0063   52.0412 H   0  0  0  0  0  0  0  0  0  0  0  0
   11.3357   47.8054   53.8281 H   0  0  0  0  0  0  0  0  0  0  0  0
   10.6965   46.6259   54.6164 H   0  0  0  0  0  0  0  0  0  0  0  0
   11.5555   46.6382   51.5082 H   0  0  0  0  0  0  0  0  0  0  0  0
   10.9550   45.2553   51.8910 H   0  0  0  0  0  0  0  0  0  0  0  0
  1  2  1  0
  2  3  1  0
  3  4  2  0
  4  5  1  0
  5  6  2  0
  6  7  1  0
  7  8  2  0
  8  9  1  0
  9 10  1  0
 10 11  2  0
 10 12  1  0
 12 13  2  0
 13 14  1  0
 13 15  1  0
 15 16  2  0
 16 17  1  0
 17 18  2  0
 18 19  1  0
 19 20  1  0
 20 21  1  0
 21 22  1  0
 22 23  1  0
  8  3  1  0
 18 12  1  0
 23 21  1  0
  1 24  1  0
  1 25  1  0
  1 26  1  0
  4 27  1  0
  5 28  1  0
  7 29  1  0
  9 30  1  0
 15 31  1  0
 16 32  1  0
 17 33  1  0
 20 34  1  0
 20 35  1  0
 21 36  1  0
 22 37  1  0
 22 38  1  0
 23 39  1  0
 23 40  1  0
M  END
>  <meeko>  (1) 
{"is_sidechain": false}

>  <CID>  (1) 
Z2994634090

>  <pose_index>  (1) 
2

>  <docking_score>  (1) 
-8.519

>  <rmsd_to_best_selected>  (1) 
0.0

>  <MWT>  (1) 
332.78699999999975

>  <TPSA>  (1) 
60.45

>  <logP>  (1) 
3.7847000000000017

>  <HBD>  (1) 
1

>  <HBA>  (1) 
4

>  <SMILES>  (1) 
[H]c1nc([H])c(N([H])C(=O)c2c(Cl)c([H])c([H])c([H])c2OC([H])([H])C2([H])C([H])([H])C2([H])[H])c(OC([H])([H])[H])c1[H]

$$$$
Z2994634090_pose4
     RDKit          3D

 40 42  0  0  0  0  0  0  0  0999 V2000
    1.2991   44.6252   53.1480 C   0  0  0  0  0  0  0  0  0  0  0  0
    2.6089   45.1577   52.9912 O   0  0  0  0  0  0  0  0  0  0  0  0
    3.3075   45.4428   54.1440 C   0  0  0  0  0  0  0  0  0  0  0  0
    2.7373   45.5995   55.4049 C   0  0  0  0  0  0  0  0  0  0  0  0
    3.5740   45.8835   56.4726 C   0  0  0  0  0  0  0  0  0  0  0  0
    4.9098   46.0183   56.3661 N   0  0  0  0  0  0  0  0  0  0  0  0
    5.4450   45.8627   55.1283 C   0  0  0  0  0  0  0  0  0  0  0  0
    4.6979   45.5767   53.9915 C   0  0  0  0  0  0  0  0  0  0  0  0
    5.2341   45.4092   52.6962 N   0  0  0  0  0  0  0  0  0  0  0  0
    5.6231   44.2311   52.0962 C   0  0  0  0  0  0  0  0  0  0  0  0
    5.5354   43.1086   52.5768 O   0  0  0  0  0  0  0  0  0  0  0  0
    6.1768   44.3893   50.7285 C   0  0  0  0  0  0  0  0  0  0  0  0
    5.3217   44.5010   49.6236 C   0  0  0  0  0  0  0  0  0  0  0  0
    3.6015   44.3693   49.7403 Cl  0  0  0  0  0  0  0  0  0  0  0  0
    5.8562   44.6695   48.3392 C   0  0  0  0  0  0  0  0  0  0  0  0
    7.2378   44.7152   48.1497 C   0  0  0  0  0  0  0  0  0  0  0  0
    8.0917   44.5978   49.2421 C   0  0  0  0  0  0  0  0  0  0  0  0
    7.5651   44.4580   50.5307 C   0  0  0  0  0  0  0  0  0  0  0  0
    8.4166   44.3053   51.5957 O   0  0  0  0  0  0  0  0  0  0  0  0
    9.0421   45.5440   51.9597 C   0  0  0  0  0  0  0  0  0  0  0  0
    8.5632   46.0100   53.3065 C   0  0  0  0  0  0  0  0  0  0  0  0
    9.5364   46.3977   54.3913 C   0  0  0  0  0  0  0  0  0  0  0  0
    8.6678   47.4489   53.7512 C   0  0  0  0  0  0  0  0  0  0  0  0
    0.5994   45.1767   52.5029 H   0  0  0  0  0  0  0  0  0  0  0  0
    1.2991   43.5623   52.8645 H   0  0  0  0  0  0  0  0  0  0  0  0
    0.9861   44.7246   54.1978 H   0  0  0  0  0  0  0  0  0  0  0  0
    1.6514   45.5004   55.5496 H   0  0  0  0  0  0  0  0  0  0  0  0
    3.1198   46.0062   57.4668 H   0  0  0  0  0  0  0  0  0  0  0  0
    6.5343   45.9691   55.0183 H   0  0  0  0  0  0  0  0  0  0  0  0
    5.2379   46.2567   52.1341 H   0  0  0  0  0  0  0  0  0  0  0  0
    5.1824   44.7663   47.4751 H   0  0  0  0  0  0  0  0  0  0  0  0
    7.6512   44.8438   47.1385 H   0  0  0  0  0  0  0  0  0  0  0  0
    9.1813   44.6150   49.0924 H   0  0  0  0  0  0  0  0  0  0  0  0
   10.1322   45.4008   51.9946 H   0  0  0  0  0  0  0  0  0  0  0  0
    8.7791   46.3048   51.2100 H   0  0  0  0  0  0  0  0  0  0  0  0
    7.7369   45.2900   53.2121 H   0  0  0  0  0  0  0  0  0  0  0  0
    9.3515   46.0904   55.4312 H   0  0  0  0  0  0  0  0  0  0  0  0
   10.6181   46.2721   54.5460 H   0  0  0  0  0  0  0  0  0  0  0  0
    7.8486   47.9086   54.3236 H   0  0  0  0  0  0  0  0  0  0  0  0
    8.8525   48.4079   53.2452 H   0  0  0  0  0  0  0  0  0  0  0  0
  1  2  1  0
  2  3  1  0
  3  4  2  0
  4  5  1  0
  5  6  2  0
  6  7  1  0
  7  8  2  0
  8  9  1  0
  9 10  1  0
 10 11  2  0
 10 12  1  0
 12 13  2  0
 13 14  1  0
 13 15  1  0
 15 16  2  0
 16 17  1  0
 17 18  2  0
 18 19  1  0
 19 20  1  0
 20 21  1  0
 21 22  1  0
 22 23  1  0
  8  3  1  0
 18 12  1  0
 23 21  1  0
  1 24  1  0
  1 25  1  0
  1 26  1  0
  4 27  1  0
  5 28  1  0
  7 29  1  0
  9 30  1  0
 15 31  1  0
 16 32  1  0
 17 33  1  0
 20 34  1  0
 20 35  1  0
 21 36  1  0
 22 37  1  0
 22 38  1  0
 23 39  1  0
 23 40  1  0
M  END
>  <meeko>  (2) 
{"is_sidechain": false}

>  <CID>  (2) 
Z2994634090

>  <pose_index>  (2) 
4

>  <docking_score>  (2) 
-8.131

>  <rmsd_to_best_selected>  (2) 
1.9504156295159194

>  <MWT>  (2) 
332.78699999999975

>  <TPSA>  (2) 
60.45

>  <logP>  (2) 
3.7847000000000017

>  <HBD>  (2) 
1

>  <HBA>  (2) 
4

>  <SMILES>  (2) 
[H]c1nc([H])c(N([H])C(=O)c2c(Cl)c([H])c([H])c([H])c2OC([H])([H])C2([H])C([H])([H])C2([H])[H])c(OC([H])([H])[H])c1[H]

$$$$
Z2994634090_pose6
     RDKit          3D

 40 42  0  0  0  0  0  0  0  0999 V2000
    1.8143   43.4414   53.3680 C   0  0  0  0  0  0  0  0  0  0  0  0
    3.1704   43.8090   53.5881 O   0  0  0  0  0  0  0  0  0  0  0  0
    3.3959   44.9223   54.3674 C   0  0  0  0  0  0  0  0  0  0  0  0
    2.7895   45.1724   55.5963 C   0  0  0  0  0  0  0  0  0  0  0  0
    3.1204   46.3397   56.2651 C   0  0  0  0  0  0  0  0  0  0  0  0
    3.9953   47.2521   55.7983 N   0  0  0  0  0  0  0  0  0  0  0  0
    4.5736   46.9892   54.5990 C   0  0  0  0  0  0  0  0  0  0  0  0
    4.3137   45.8506   53.8453 C   0  0  0  0  0  0  0  0  0  0  0  0
    4.9033   45.5576   52.5970 N   0  0  0  0  0  0  0  0  0  0  0  0
    5.9781   44.7310   52.3533 C   0  0  0  0  0  0  0  0  0  0  0  0
    6.5918   44.0722   53.1838 O   0  0  0  0  0  0  0  0  0  0  0  0
    6.3817   44.6491   50.9277 C   0  0  0  0  0  0  0  0  0  0  0  0
    5.8645   43.6449   50.0976 C   0  0  0  0  0  0  0  0  0  0  0  0
    4.8205   42.3913   50.6687 Cl  0  0  0  0  0  0  0  0  0  0  0  0
    6.2381   43.5896   48.7483 C   0  0  0  0  0  0  0  0  0  0  0  0
    7.1329   44.5237   48.2240 C   0  0  0  0  0  0  0  0  0  0  0  0
    7.6547   45.5194   49.0447 C   0  0  0  0  0  0  0  0  0  0  0  0
    7.2648   45.5973   50.3861 C   0  0  0  0  0  0  0  0  0  0  0  0
    7.8150   46.5600   51.1946 O   0  0  0  0  0  0  0  0  0  0  0  0
    9.1233   46.1879   51.6529 C   0  0  0  0  0  0  0  0  0  0  0  0
    9.4187   46.8099   52.9887 C   0  0  0  0  0  0  0  0  0  0  0  0
    8.3165   47.3662   53.8547 C   0  0  0  0  0  0  0  0  0  0  0  0
    9.0665   46.1367   54.2936 C   0  0  0  0  0  0  0  0  0  0  0  0
    1.1683   44.3202   53.5111 H   0  0  0  0  0  0  0  0  0  0  0  0
    1.6986   43.0646   52.3410 H   0  0  0  0  0  0  0  0  0  0  0  0
    1.5271   42.6551   54.0816 H   0  0  0  0  0  0  0  0  0  0  0  0
    2.0670   44.4619   56.0244 H   0  0  0  0  0  0  0  0  0  0  0  0
    2.6401   46.5334   57.2355 H   0  0  0  0  0  0  0  0  0  0  0  0
    5.2909   47.7211   54.1993 H   0  0  0  0  0  0  0  0  0  0  0  0
    4.4029   45.9414   51.7993 H   0  0  0  0  0  0  0  0  0  0  0  0
    5.8237   42.8050   48.0981 H   0  0  0  0  0  0  0  0  0  0  0  0
    7.4250   44.4730   47.1647 H   0  0  0  0  0  0  0  0  0  0  0  0
    8.3741   46.2456   48.6384 H   0  0  0  0  0  0  0  0  0  0  0  0
    9.1747   45.0930   51.7458 H   0  0  0  0  0  0  0  0  0  0  0  0
    9.8665   46.5462   50.9254 H   0  0  0  0  0  0  0  0  0  0  0  0
   10.3473   47.2027   52.5489 H   0  0  0  0  0  0  0  0  0  0  0  0
    8.4625   48.3181   54.3862 H   0  0  0  0  0  0  0  0  0  0  0  0
    7.2565   47.6153   53.6986 H   0  0  0  0  0  0  0  0  0  0  0  0
    9.7607   46.1907   55.1452 H   0  0  0  0  0  0  0  0  0  0  0  0
    8.7817   45.1165   54.5904 H   0  0  0  0  0  0  0  0  0  0  0  0
  1  2  1  0
  2  3  1  0
  3  4  2  0
  4  5  1  0
  5  6  2  0
  6  7  1  0
  7  8  2  0
  8  9  1  0
  9 10  1  0
 10 11  2  0
 10 12  1  0
 12 13  2  0
 13 14  1  0
 13 15  1  0
 15 16  2  0
 16 17  1  0
 17 18  2  0
 18 19  1  0
 19 20  1  0
 20 21  1  0
 21 22  1  0
 22 23  1  0
  8  3  1  0
 18 12  1  0
 23 21  1  0
  1 24  1  0
  1 25  1  0
  1 26  1  0
  4 27  1  0
  5 28  1  0
  7 29  1  0
  9 30  1  0
 15 31  1  0
 16 32  1  0
 17 33  1  0
 20 34  1  0
 20 35  1  0
 21 36  1  0
 22 37  1  0
 22 38  1  0
 23 39  1  0
 23 40  1  0
M  END
>  <meeko>  (3) 
{"is_sidechain": false}

>  <CID>  (3) 
Z2994634090

>  <pose_index>  (3) 
6

>  <docking_score>  (3) 
-7.95

>  <rmsd_to_best_selected>  (3) 
1.9115986204259363

>  <MWT>  (3) 
332.78699999999975

>  <TPSA>  (3) 
60.45

>  <logP>  (3) 
3.7847000000000017

>  <HBD>  (3) 
1

>  <HBA>  (3) 
4

>  <SMILES>  (3) 
[H]c1nc([H])c(N([H])C(=O)c2c(Cl)c([H])c([H])c([H])c2OC([H])([H])C2([H])C([H])([H])C2([H])[H])c(OC([H])([H])[H])c1[H]

$$$$
Z2994634090_pose8
     RDKit          3D

 40 42  0  0  0  0  0  0  0  0999 V2000
    1.9292   43.4656   53.4018 C   0  0  0  0  0  0  0  0  0  0  0  0
    3.3158   43.7094   53.6108 O   0  0  0  0  0  0  0  0  0  0  0  0
    3.6465   44.7630   54.4322 C   0  0  0  0  0  0  0  0  0  0  0  0
    2.9945   45.0842   55.6208 C   0  0  0  0  0  0  0  0  0  0  0  0
    3.4467   46.1770   56.3432 C   0  0  0  0  0  0  0  0  0  0  0  0
    4.4811   46.9529   55.9640 N   0  0  0  0  0  0  0  0  0  0  0  0
    5.1018   46.6235   54.8023 C   0  0  0  0  0  0  0  0  0  0  0  0
    4.7305   45.5483   54.0026 C   0  0  0  0  0  0  0  0  0  0  0  0
    5.3609   45.1876   52.7932 N   0  0  0  0  0  0  0  0  0  0  0  0
    5.1820   45.7594   51.5522 C   0  0  0  0  0  0  0  0  0  0  0  0
    4.4620   46.7152   51.2901 O   0  0  0  0  0  0  0  0  0  0  0  0
    5.9750   45.1345   50.4650 C   0  0  0  0  0  0  0  0  0  0  0  0
    5.4080   44.1470   49.6478 C   0  0  0  0  0  0  0  0  0  0  0  0
    3.8164   43.5183   49.8890 Cl  0  0  0  0  0  0  0  0  0  0  0  0
    6.1614   43.5798   48.6109 C   0  0  0  0  0  0  0  0  0  0  0  0
    7.4787   43.9816   48.3927 C   0  0  0  0  0  0  0  0  0  0  0  0
    8.0498   44.9571   49.2050 C   0  0  0  0  0  0  0  0  0  0  0  0
    7.2948   45.5485   50.2238 C   0  0  0  0  0  0  0  0  0  0  0  0
    7.8798   46.4815   51.0423 O   0  0  0  0  0  0  0  0  0  0  0  0
    8.8423   45.8872   51.9263 C   0  0  0  0  0  0  0  0  0  0  0  0
    9.1716   46.8152   53.0617 C   0  0  0  0  0  0  0  0  0  0  0  0
    8.1090   47.6656   53.7111 C   0  0  0  0  0  0  0  0  0  0  0  0
    8.7446   46.5403   54.4841 C   0  0  0  0  0  0  0  0  0  0  0  0
    1.6682   42.4721   53.7955 H   0  0  0  0  0  0  0  0  0  0  0  0
    1.3391   44.2334   53.9237 H   0  0  0  0  0  0  0  0  0  0  0  0
    1.7086   43.5028   52.3248 H   0  0  0  0  0  0  0  0  0  0  0  0
    2.1428   44.4860   55.9766 H   0  0  0  0  0  0  0  0  0  0  0  0
    2.9305   46.4259   57.2821 H   0  0  0  0  0  0  0  0  0  0  0  0
    5.9488   47.2440   54.4742 H   0  0  0  0  0  0  0  0  0  0  0  0
    6.0890   44.4852   52.8956 H   0  0  0  0  0  0  0  0  0  0  0  0
    5.7104   42.8122   47.9649 H   0  0  0  0  0  0  0  0  0  0  0  0
    8.0655   43.5286   47.5800 H   0  0  0  0  0  0  0  0  0  0  0  0
    9.0943   45.2630   49.0459 H   0  0  0  0  0  0  0  0  0  0  0  0
    8.4289   44.9526   52.3332 H   0  0  0  0  0  0  0  0  0  0  0  0
    9.7629   45.6849   51.3592 H   0  0  0  0  0  0  0  0  0  0  0  0
   10.1365   47.0036   52.5683 H   0  0  0  0  0  0  0  0  0  0  0  0
    8.3285   48.7095   53.9795 H   0  0  0  0  0  0  0  0  0  0  0  0
    7.0766   47.9474   53.4568 H   0  0  0  0  0  0  0  0  0  0  0  0
    9.4287   46.7624   55.3164 H   0  0  0  0  0  0  0  0  0  0  0  0
    8.3693   45.6606   55.0274 H   0  0  0  0  0  0  0  0  0  0  0  0
  1  2  1  0
  2  3  1  0
  3  4  2  0
  4  5  1  0
  5  6  2  0
  6  7  1  0
  7  8  2  0
  8  9  1  0
  9 10  1  0
 10 11  2  0
 10 12  1  0
 12 13  2  0
 13 14  1  0
 13 15  1  0
 15 16  2  0
 16 17  1  0
 17 18  2  0
 18 19  1  0
 19 20  1  0
 20 21  1  0
 21 22  1  0
 22 23  1  0
  8  3  1  0
 18 12  1  0
 23 21  1  0
  1 24  1  0
  1 25  1  0
  1 26  1  0
  4 27  1  0
  5 28  1  0
  7 29  1  0
  9 30  1  0
 15 31  1  0
 16 32  1  0
 17 33  1  0
 20 34  1  0
 20 35  1  0
 21 36  1  0
 22 37  1  0
 22 38  1  0
 23 39  1  0
 23 40  1  0
M  END
>  <meeko>  (4) 
{"is_sidechain": false}

>  <CID>  (4) 
Z2994634090

>  <pose_index>  (4) 
8

>  <docking_score>  (4) 
-7.629

>  <rmsd_to_best_selected>  (4) 
1.7836796341848964

>  <MWT>  (4) 
332.78699999999975

>  <TPSA>  (4) 
60.45

>  <logP>  (4) 
3.7847000000000017

>  <HBD>  (4) 
1

>  <HBA>  (4) 
4

>  <SMILES>  (4) 
[H]c1nc([H])c(N([H])C(=O)c2c(Cl)c([H])c([H])c([H])c2OC([H])([H])C2([H])C([H])([H])C2([H])[H])c(OC([H])([H])[H])c1[H]

$$$$
Z2994634090_pose9
     RDKit          3D

 40 42  0  0  0  0  0  0  0  0999 V2000
    2.0369   43.6183   53.0866 C   0  0  0  0  0  0  0  0  0  0  0  0
    2.5059   44.9605   53.0377 O   0  0  0  0  0  0  0  0  0  0  0  0
    3.1568   45.4339   54.1550 C   0  0  0  0  0  0  0  0  0  0  0  0
    2.5462   45.7121   55.3759 C   0  0  0  0  0  0  0  0  0  0  0  0
    3.3359   46.1832   56.4125 C   0  0  0  0  0  0  0  0  0  0  0  0
    4.6637   46.3909   56.3120 N   0  0  0  0  0  0  0  0  0  0  0  0
    5.2385   46.1147   55.1124 C   0  0  0  0  0  0  0  0  0  0  0  0
    4.5394   45.6384   54.0092 C   0  0  0  0  0  0  0  0  0  0  0  0
    5.1152   45.3435   52.7552 N   0  0  0  0  0  0  0  0  0  0  0  0
    5.7193   44.1681   52.3672 C   0  0  0  0  0  0  0  0  0  0  0  0
    5.8283   43.1507   53.0399 O   0  0  0  0  0  0  0  0  0  0  0  0
    6.2569   44.1778   50.9832 C   0  0  0  0  0  0  0  0  0  0  0  0
    5.5234   43.6116   49.9318 C   0  0  0  0  0  0  0  0  0  0  0  0
    4.0212   42.7887   50.1611 Cl  0  0  0  0  0  0  0  0  0  0  0  0
    6.0327   43.6454   48.6261 C   0  0  0  0  0  0  0  0  0  0  0  0
    7.2723   44.2292   48.3661 C   0  0  0  0  0  0  0  0  0  0  0  0
    8.0081   44.7865   49.4087 C   0  0  0  0  0  0  0  0  0  0  0  0
    7.4939   44.7822   50.7095 C   0  0  0  0  0  0  0  0  0  0  0  0
    8.2443   45.3012   51.7334 O   0  0  0  0  0  0  0  0  0  0  0  0
    8.4441   46.7153   51.5858 C   0  0  0  0  0  0  0  0  0  0  0  0
    8.4384   47.3995   52.9243 C   0  0  0  0  0  0  0  0  0  0  0  0
    8.5235   46.6109   54.2064 C   0  0  0  0  0  0  0  0  0  0  0  0
    9.6714   47.4930   53.7915 C   0  0  0  0  0  0  0  0  0  0  0  0
    0.9442   43.6161   53.2133 H   0  0  0  0  0  0  0  0  0  0  0  0
    2.2985   43.1042   52.1499 H   0  0  0  0  0  0  0  0  0  0  0  0
    2.5054   43.0968   53.9342 H   0  0  0  0  0  0  0  0  0  0  0  0
    1.4652   45.5617   55.5135 H   0  0  0  0  0  0  0  0  0  0  0  0
    2.8500   46.4005   57.3752 H   0  0  0  0  0  0  0  0  0  0  0  0
    6.3213   46.2776   55.0079 H   0  0  0  0  0  0  0  0  0  0  0  0
    4.9759   46.0644   52.0530 H   0  0  0  0  0  0  0  0  0  0  0  0
    5.4508   43.2085   47.8012 H   0  0  0  0  0  0  0  0  0  0  0  0
    7.6678   44.2493   47.3399 H   0  0  0  0  0  0  0  0  0  0  0  0
    8.9945   45.2306   49.2091 H   0  0  0  0  0  0  0  0  0  0  0  0
    9.4120   46.8931   51.0944 H   0  0  0  0  0  0  0  0  0  0  0  0
    7.6241   47.1250   50.9778 H   0  0  0  0  0  0  0  0  0  0  0  0
    7.7376   48.1320   52.4973 H   0  0  0  0  0  0  0  0  0  0  0  0
    7.8980   46.8914   55.0666 H   0  0  0  0  0  0  0  0  0  0  0  0
    8.4168   45.5494   54.4740 H   0  0  0  0  0  0  0  0  0  0  0  0
    9.8836   48.4177   54.3481 H   0  0  0  0  0  0  0  0  0  0  0  0
   10.7491   47.3428   53.6303 H   0  0  0  0  0  0  0  0  0  0  0  0
  1  2  1  0
  2  3  1  0
  3  4  2  0
  4  5  1  0
  5  6  2  0
  6  7  1  0
  7  8  2  0
  8  9  1  0
  9 10  1  0
 10 11  2  0
 10 12  1  0
 12 13  2  0
 13 14  1  0
 13 15  1  0
 15 16  2  0
 16 17  1  0
 17 18  2  0
 18 19  1  0
 19 20  1  0
 20 21  1  0
 21 22  1  0
 22 23  1  0
  8  3  1  0
 18 12  1  0
 23 21  1  0
  1 24  1  0
  1 25  1  0
  1 26  1  0
  4 27  1  0
  5 28  1  0
  7 29  1  0
  9 30  1  0
 15 31  1  0
 16 32  1  0
 17 33  1  0
 20 34  1  0
 20 35  1  0
 21 36  1  0
 22 37  1  0
 22 38  1  0
 23 39  1  0
 23 40  1  0
M  END
>  <meeko>  (5) 
{"is_sidechain": false}

>  <CID>  (5) 
Z2994634090

>  <pose_index>  (5) 
9

>  <docking_score>  (5) 
-7.504

>  <rmsd_to_best_selected>  (5) 
1.8281016626834012

>  <MWT>  (5) 
332.78699999999975

>  <TPSA>  (5) 
60.45

>  <logP>  (5) 
3.7847000000000017

>  <HBD>  (5) 
1

>  <HBA>  (5) 
4

>  <SMILES>  (5) 
[H]c1nc([H])c(N([H])C(=O)c2c(Cl)c([H])c([H])c([H])c2OC([H])([H])C2([H])C([H])([H])C2([H])[H])c(OC([H])([H])[H])c1[H]

$$$$
