Z2996605995_pose9
     RDKit          3D

 42 44  0  0  0  0  0  0  0  0999 V2000
    1.0999   45.4829   56.6717 C   0  0  0  0  0  0  0  0  0  0  0  0
    2.0944   45.2121   55.5848 C   0  0  0  0  0  0  0  0  0  0  0  0
    2.1875   43.9549   55.0159 C   0  0  0  0  0  0  0  0  0  0  0  0
    3.1353   43.7447   54.0189 C   0  0  0  0  0  0  0  0  0  0  0  0
    3.9887   44.7794   53.6091 C   0  0  0  0  0  0  0  0  0  0  0  0
    4.9132   44.4299   52.5994 N   0  0  0  0  0  0  0  0  0  0  0  0
    4.7090   44.4013   51.2346 C   0  0  0  0  0  0  0  0  0  0  0  0
    3.7053   44.7551   50.6347 O   0  0  0  0  0  0  0  0  0  0  0  0
    5.8932   43.9818   50.4415 C   0  0  0  0  0  0  0  0  0  0  0  0
    5.8903   42.7807   49.7205 C   0  0  0  0  0  0  0  0  0  0  0  0
    4.5846   41.6496   49.7787 Cl  0  0  0  0  0  0  0  0  0  0  0  0
    7.0058   42.4234   48.9518 C   0  0  0  0  0  0  0  0  0  0  0  0
    8.1297   43.2506   48.9042 C   0  0  0  0  0  0  0  0  0  0  0  0
    8.1438   44.4421   49.6244 C   0  0  0  0  0  0  0  0  0  0  0  0
    7.0259   44.8120   50.3726 C   0  0  0  0  0  0  0  0  0  0  0  0
    7.0883   45.9702   51.1066 O   0  0  0  0  0  0  0  0  0  0  0  0
    8.1340   45.8882   52.0875 C   0  0  0  0  0  0  0  0  0  0  0  0
    7.9529   47.0295   53.0403 C   0  0  0  0  0  0  0  0  0  0  0  0
    8.3514   46.8947   54.4872 C   0  0  0  0  0  0  0  0  0  0  0  0
    9.1457   47.7832   53.5693 C   0  0  0  0  0  0  0  0  0  0  0  0
    3.7990   46.0357   54.2012 C   0  0  0  0  0  0  0  0  0  0  0  0
    4.5049   47.2893   53.7826 C   0  0  0  0  0  0  0  0  0  0  0  0
    2.8744   46.2399   55.1874 N   0  0  0  0  0  0  0  0  0  0  0  0
    0.6696   44.5324   57.0201 H   0  0  0  0  0  0  0  0  0  0  0  0
    1.6018   45.9875   57.5105 H   0  0  0  0  0  0  0  0  0  0  0  0
    0.2981   46.1277   56.2828 H   0  0  0  0  0  0  0  0  0  0  0  0
    1.5269   43.1391   55.3444 H   0  0  0  0  0  0  0  0  0  0  0  0
    3.2160   42.7547   53.5463 H   0  0  0  0  0  0  0  0  0  0  0  0
    5.8889   44.4400   52.8800 H   0  0  0  0  0  0  0  0  0  0  0  0
    6.9961   41.4832   48.3810 H   0  0  0  0  0  0  0  0  0  0  0  0
    9.0017   42.9617   48.2991 H   0  0  0  0  0  0  0  0  0  0  0  0
    9.0330   45.0892   49.6036 H   0  0  0  0  0  0  0  0  0  0  0  0
    8.0660   44.9332   52.6291 H   0  0  0  0  0  0  0  0  0  0  0  0
    9.1210   45.9413   51.6047 H   0  0  0  0  0  0  0  0  0  0  0  0
    7.0292   47.3051   52.5104 H   0  0  0  0  0  0  0  0  0  0  0  0
    7.7234   47.3381   55.2740 H   0  0  0  0  0  0  0  0  0  0  0  0
    8.5905   46.0520   55.1525 H   0  0  0  0  0  0  0  0  0  0  0  0
    9.0984   48.8761   53.6851 H   0  0  0  0  0  0  0  0  0  0  0  0
   10.2059   47.8589   53.2858 H   0  0  0  0  0  0  0  0  0  0  0  0
    5.4026   47.0284   53.2028 H   0  0  0  0  0  0  0  0  0  0  0  0
    3.8320   47.8993   53.1621 H   0  0  0  0  0  0  0  0  0  0  0  0
    4.7985   47.8605   54.6757 H   0  0  0  0  0  0  0  0  0  0  0  0
  1  2  1  0
  2  3  2  0
  3  4  1  0
  4  5  2  0
  5  6  1  0
  6  7  1  0
  7  8  2  0
  7  9  1  0
  9 10  2  0
 10 11  1  0
 10 12  1  0
 12 13  2  0
 13 14  1  0
 14 15  2  0
 15 16  1  0
 16 17  1  0
 17 18  1  0
 18 19  1  0
 19 20  1  0
  5 21  1  0
 21 22  1  0
 21 23  2  0
 23  2  1  0
 15  9  1  0
 20 18  1  0
  1 24  1  0
  1 25  1  0
  1 26  1  0
  3 27  1  0
  4 28  1  0
  6 29  1  0
 12 30  1  0
 13 31  1  0
 14 32  1  0
 17 33  1  0
 17 34  1  0
 18 35  1  0
 19 36  1  0
 19 37  1  0
 20 38  1  0
 20 39  1  0
 22 40  1  0
 22 41  1  0
 22 42  1  0
M  END
>  <meeko>  (1) 
{"is_sidechain": false}

>  <CID>  (1) 
Z2996605995

>  <pose_index>  (1) 
9

>  <docking_score>  (1) 
-7.671

>  <rmsd_to_best_selected>  (1) 
1.2971254872359013

>  <MWT>  (1) 
330.81499999999966

>  <TPSA>  (1) 
51.22

>  <logP>  (1) 
4.392940000000003

>  <HBD>  (1) 
1

>  <HBA>  (1) 
3

>  <SMILES>  (1) 
[H]c1c(C([H])([H])[H])nc(C([H])([H])[H])c(N([H])C(=O)c2c(Cl)c([H])c([H])c([H])c2OC([H])([H])C2([H])C([H])([H])C2([H])[H])c1[H]

$$$$
Z2996605995_pose1
     RDKit          3D

 42 44  0  0  0  0  0  0  0  0999 V2000
    0.4110   45.2810   56.5460 C   0  0  0  0  0  0  0  0  0  0  0  0
    1.5060   45.0740   55.5440 C   0  0  0  0  0  0  0  0  0  0  0  0
    1.3630   44.1420   54.5320 C   0  0  0  0  0  0  0  0  0  0  0  0
    2.4100   43.9740   53.6310 C   0  0  0  0  0  0  0  0  0  0  0  0
    3.5910   44.7210   53.7540 C   0  0  0  0  0  0  0  0  0  0  0  0
    4.5800   44.4420   52.7840 N   0  0  0  0  0  0  0  0  0  0  0  0
    4.5930   44.8160   51.4550 C   0  0  0  0  0  0  0  0  0  0  0  0
    3.7840   45.5320   50.8850 O   0  0  0  0  0  0  0  0  0  0  0  0
    5.7860   44.3580   50.6960 C   0  0  0  0  0  0  0  0  0  0  0  0
    5.8050   43.1040   50.0710 C   0  0  0  0  0  0  0  0  0  0  0  0
    4.5200   41.9570   50.2160 Cl  0  0  0  0  0  0  0  0  0  0  0  0
    6.9280   42.7090   49.3320 C   0  0  0  0  0  0  0  0  0  0  0  0
    8.0370   43.5490   49.2200 C   0  0  0  0  0  0  0  0  0  0  0  0
    8.0290   44.7940   49.8460 C   0  0  0  0  0  0  0  0  0  0  0  0
    6.9030   45.2000   50.5640 C   0  0  0  0  0  0  0  0  0  0  0  0
    6.9450   46.4120   51.2060 O   0  0  0  0  0  0  0  0  0  0  0  0
    7.6610   46.3010   52.4450 C   0  0  0  0  0  0  0  0  0  0  0  0
    8.8980   47.1380   52.3310 C   0  0  0  0  0  0  0  0  0  0  0  0
    9.8740   47.2280   53.4750 C   0  0  0  0  0  0  0  0  0  0  0  0
   10.2550   46.4920   52.2190 C   0  0  0  0  0  0  0  0  0  0  0  0
    3.6380   45.6760   54.7780 C   0  0  0  0  0  0  0  0  0  0  0  0
    4.7450   46.6690   54.9660 C   0  0  0  0  0  0  0  0  0  0  0  0
    2.6130   45.8360   55.6690 N   0  0  0  0  0  0  0  0  0  0  0  0
    0.8244   45.2028   57.5623 H   0  0  0  0  0  0  0  0  0  0  0  0
   -0.0308   46.2786   56.4056 H   0  0  0  0  0  0  0  0  0  0  0  0
   -0.3644   44.5135   56.4056 H   0  0  0  0  0  0  0  0  0  0  0  0
    0.4423   43.5470   54.4415 H   0  0  0  0  0  0  0  0  0  0  0  0
    2.3104   43.2464   52.8121 H   0  0  0  0  0  0  0  0  0  0  0  0
    5.4830   44.1570   53.1510 H   0  0  0  0  0  0  0  0  0  0  0  0
    6.9357   41.7275   48.8354 H   0  0  0  0  0  0  0  0  0  0  0  0
    8.9148   43.2292   48.6393 H   0  0  0  0  0  0  0  0  0  0  0  0
    8.9062   45.4539   49.7746 H   0  0  0  0  0  0  0  0  0  0  0  0
    7.0361   46.6665   53.2732 H   0  0  0  0  0  0  0  0  0  0  0  0
    7.9223   45.2518   52.6470 H   0  0  0  0  0  0  0  0  0  0  0  0
    8.3306   47.8665   51.7332 H   0  0  0  0  0  0  0  0  0  0  0  0
   10.3520   48.1890   53.7156 H   0  0  0  0  0  0  0  0  0  0  0  0
    9.8430   46.9753   54.5451 H   0  0  0  0  0  0  0  0  0  0  0  0
   11.0113   46.9152   51.5416 H   0  0  0  0  0  0  0  0  0  0  0  0
   10.6175   45.4788   51.9910 H   0  0  0  0  0  0  0  0  0  0  0  0
    4.9190   46.8250   56.0409 H   0  0  0  0  0  0  0  0  0  0  0  0
    5.6639   46.2868   54.4975 H   0  0  0  0  0  0  0  0  0  0  0  0
    4.4645   47.6239   54.4975 H   0  0  0  0  0  0  0  0  0  0  0  0
  1  2  1  0
  2  3  2  0
  3  4  1  0
  4  5  2  0
  5  6  1  0
  6  7  1  0
  7  8  2  0
  7  9  1  0
  9 10  2  0
 10 11  1  0
 10 12  1  0
 12 13  2  0
 13 14  1  0
 14 15  2  0
 15 16  1  0
 16 17  1  0
 17 18  1  0
 18 19  1  0
 19 20  1  0
  5 21  1  0
 21 22  1  0
 21 23  2  0
 23  2  1  0
 15  9  1  0
 20 18  1  0
  1 24  1  0
  1 25  1  0
  1 26  1  0
  3 27  1  0
  4 28  1  0
  6 29  1  0
 12 30  1  0
 13 31  1  0
 14 32  1  0
 17 33  1  0
 17 34  1  0
 18 35  1  0
 19 36  1  0
 19 37  1  0
 20 38  1  0
 20 39  1  0
 22 40  1  0
 22 41  1  0
 22 42  1  0
M  END
>  <meeko>  (2) 
{"is_sidechain": false}

>  <CID>  (2) 
Z2996605995

>  <pose_index>  (2) 
1

>  <docking_score>  (2) 
-9.115

>  <rmsd_to_best_selected>  (2) 
0.0

>  <MWT>  (2) 
330.81499999999966

>  <TPSA>  (2) 
51.22

>  <logP>  (2) 
4.392940000000003

>  <HBD>  (2) 
1

>  <HBA>  (2) 
3

>  <SMILES>  (2) 
[H]c1c(C([H])([H])[H])nc(C([H])([H])[H])c(N([H])C(=O)c2c(Cl)c([H])c([H])c([H])c2OC([H])([H])C2([H])C([H])([H])C2([H])[H])c1[H]

$$$$
Z2996605995_pose4
     RDKit          3D

 42 44  0  0  0  0  0  0  0  0999 V2000
   -0.0283   44.9276   56.4702 C   0  0  0  0  0  0  0  0  0  0  0  0
    1.0484   44.8880   55.4291 C   0  0  0  0  0  0  0  0  0  0  0  0
    0.9736   43.9942   54.3754 C   0  0  0  0  0  0  0  0  0  0  0  0
    2.0017   43.9836   53.4387 C   0  0  0  0  0  0  0  0  0  0  0  0
    3.0997   44.8475   53.5672 C   0  0  0  0  0  0  0  0  0  0  0  0
    4.0804   44.7242   52.5575 N   0  0  0  0  0  0  0  0  0  0  0  0
    5.3631   44.2274   52.6765 C   0  0  0  0  0  0  0  0  0  0  0  0
    5.8668   43.7234   53.6691 O   0  0  0  0  0  0  0  0  0  0  0  0
    6.1496   44.2381   51.4158 C   0  0  0  0  0  0  0  0  0  0  0  0
    5.9947   43.2247   50.4606 C   0  0  0  0  0  0  0  0  0  0  0  0
    4.9827   41.8447   50.7046 Cl  0  0  0  0  0  0  0  0  0  0  0  0
    6.7212   43.2742   49.2645 C   0  0  0  0  0  0  0  0  0  0  0  0
    7.6111   44.3213   49.0163 C   0  0  0  0  0  0  0  0  0  0  0  0
    7.7779   45.3287   49.9641 C   0  0  0  0  0  0  0  0  0  0  0  0
    7.0380   45.2929   51.1473 C   0  0  0  0  0  0  0  0  0  0  0  0
    7.2585   46.2758   52.0811 O   0  0  0  0  0  0  0  0  0  0  0  0
    8.4667   46.0139   52.8113 C   0  0  0  0  0  0  0  0  0  0  0  0
    9.5045   46.9817   52.3341 C   0  0  0  0  0  0  0  0  0  0  0  0
   10.8279   47.1038   53.0443 C   0  0  0  0  0  0  0  0  0  0  0  0
   10.7658   46.4906   51.6720 C   0  0  0  0  0  0  0  0  0  0  0  0
    3.0772   45.7537   54.6362 C   0  0  0  0  0  0  0  0  0  0  0  0
    4.0775   46.8496   54.8429 C   0  0  0  0  0  0  0  0  0  0  0  0
    2.0710   45.7592   55.5609 N   0  0  0  0  0  0  0  0  0  0  0  0
    0.4166   44.7699   57.4638 H   0  0  0  0  0  0  0  0  0  0  0  0
   -0.5283   45.9070   56.4436 H   0  0  0  0  0  0  0  0  0  0  0  0
   -0.7635   44.1349   56.2677 H   0  0  0  0  0  0  0  0  0  0  0  0
    0.1197   43.3072   54.2806 H   0  0  0  0  0  0  0  0  0  0  0  0
    1.9534   43.2893   52.5868 H   0  0  0  0  0  0  0  0  0  0  0  0
    3.7331   44.7700   51.6038 H   0  0  0  0  0  0  0  0  0  0  0  0
    6.5898   42.4811   48.5137 H   0  0  0  0  0  0  0  0  0  0  0  0
    8.1790   44.3507   48.0747 H   0  0  0  0  0  0  0  0  0  0  0  0
    8.4888   46.1479   49.7810 H   0  0  0  0  0  0  0  0  0  0  0  0
    8.2915   46.1530   53.8883 H   0  0  0  0  0  0  0  0  0  0  0  0
    8.8001   44.9786   52.6467 H   0  0  0  0  0  0  0  0  0  0  0  0
    8.7018   47.6816   52.0588 H   0  0  0  0  0  0  0  0  0  0  0  0
   11.2876   48.0933   53.1841 H   0  0  0  0  0  0  0  0  0  0  0  0
   11.2181   46.7841   54.0218 H   0  0  0  0  0  0  0  0  0  0  0  0
   11.1802   47.0318   50.8086 H   0  0  0  0  0  0  0  0  0  0  0  0
   11.0919   45.5371   51.2310 H   0  0  0  0  0  0  0  0  0  0  0  0
    4.5552   46.7292   55.8264 H   0  0  0  0  0  0  0  0  0  0  0  0
    4.8433   46.8004   54.0548 H   0  0  0  0  0  0  0  0  0  0  0  0
    3.5684   47.8237   54.7992 H   0  0  0  0  0  0  0  0  0  0  0  0
  1  2  1  0
  2  3  2  0
  3  4  1  0
  4  5  2  0
  5  6  1  0
  6  7  1  0
  7  8  2  0
  7  9  1  0
  9 10  2  0
 10 11  1  0
 10 12  1  0
 12 13  2  0
 13 14  1  0
 14 15  2  0
 15 16  1  0
 16 17  1  0
 17 18  1  0
 18 19  1  0
 19 20  1  0
  5 21  1  0
 21 22  1  0
 21 23  2  0
 23  2  1  0
 15  9  1  0
 20 18  1  0
  1 24  1  0
  1 25  1  0
  1 26  1  0
  3 27  1  0
  4 28  1  0
  6 29  1  0
 12 30  1  0
 13 31  1  0
 14 32  1  0
 17 33  1  0
 17 34  1  0
 18 35  1  0
 19 36  1  0
 19 37  1  0
 20 38  1  0
 20 39  1  0
 22 40  1  0
 22 41  1  0
 22 42  1  0
M  END
>  <meeko>  (3) 
{"is_sidechain": false}

>  <CID>  (3) 
Z2996605995

>  <pose_index>  (3) 
4

>  <docking_score>  (3) 
-8.655

>  <rmsd_to_best_selected>  (3) 
1.0649224831138357

>  <MWT>  (3) 
330.81499999999966

>  <TPSA>  (3) 
51.22

>  <logP>  (3) 
4.392940000000003

>  <HBD>  (3) 
1

>  <HBA>  (3) 
3

>  <SMILES>  (3) 
[H]c1c(C([H])([H])[H])nc(C([H])([H])[H])c(N([H])C(=O)c2c(Cl)c([H])c([H])c([H])c2OC([H])([H])C2([H])C([H])([H])C2([H])[H])c1[H]

$$$$
Z2996605995_pose5
     RDKit          3D

 42 44  0  0  0  0  0  0  0  0999 V2000
    0.6844   45.6659   56.4037 C   0  0  0  0  0  0  0  0  0  0  0  0
    1.7308   45.4048   55.3629 C   0  0  0  0  0  0  0  0  0  0  0  0
    1.4291   44.6607   54.2357 C   0  0  0  0  0  0  0  0  0  0  0  0
    2.4353   44.4333   53.3027 C   0  0  0  0  0  0  0  0  0  0  0  0
    3.7304   44.9314   53.5049 C   0  0  0  0  0  0  0  0  0  0  0  0
    4.6596   44.6153   52.4883 N   0  0  0  0  0  0  0  0  0  0  0  0
    5.1896   43.3785   52.1776 C   0  0  0  0  0  0  0  0  0  0  0  0
    4.8896   42.3039   52.6768 O   0  0  0  0  0  0  0  0  0  0  0  0
    6.1514   43.3854   51.0449 C   0  0  0  0  0  0  0  0  0  0  0  0
    5.8285   42.7881   49.8196 C   0  0  0  0  0  0  0  0  0  0  0  0
    4.3618   41.9127   49.5544 Cl  0  0  0  0  0  0  0  0  0  0  0  0
    6.7385   42.8373   48.7557 C   0  0  0  0  0  0  0  0  0  0  0  0
    7.9740   43.4696   48.9078 C   0  0  0  0  0  0  0  0  0  0  0  0
    8.3075   44.0576   50.1254 C   0  0  0  0  0  0  0  0  0  0  0  0
    7.3937   44.0297   51.1799 C   0  0  0  0  0  0  0  0  0  0  0  0
    7.7704   44.5789   52.3801 O   0  0  0  0  0  0  0  0  0  0  0  0
    8.6382   45.7031   52.1697 C   0  0  0  0  0  0  0  0  0  0  0  0
    8.2722   46.7534   53.1712 C   0  0  0  0  0  0  0  0  0  0  0  0
    9.2991   47.7423   53.6587 C   0  0  0  0  0  0  0  0  0  0  0  0
    8.1783   48.2022   52.7658 C   0  0  0  0  0  0  0  0  0  0  0  0
    3.9413   45.7131   54.6471 C   0  0  0  0  0  0  0  0  0  0  0  0
    5.2084   46.4548   54.9490 C   0  0  0  0  0  0  0  0  0  0  0  0
    2.9563   45.9314   55.5700 N   0  0  0  0  0  0  0  0  0  0  0  0
   -0.3104   45.6544   55.9344 H   0  0  0  0  0  0  0  0  0  0  0  0
    0.7339   44.8854   57.1773 H   0  0  0  0  0  0  0  0  0  0  0  0
    0.8617   46.6494   56.8633 H   0  0  0  0  0  0  0  0  0  0  0  0
    0.4171   44.2583   54.0812 H   0  0  0  0  0  0  0  0  0  0  0  0
    2.2121   43.8551   52.3940 H   0  0  0  0  0  0  0  0  0  0  0  0
    4.7590   45.3118   51.7567 H   0  0  0  0  0  0  0  0  0  0  0  0
    6.4776   42.3740   47.7927 H   0  0  0  0  0  0  0  0  0  0  0  0
    8.6829   43.5033   48.0673 H   0  0  0  0  0  0  0  0  0  0  0  0
    9.2866   44.5417   50.2554 H   0  0  0  0  0  0  0  0  0  0  0  0
    9.6859   45.3994   52.3111 H   0  0  0  0  0  0  0  0  0  0  0  0
    8.5261   46.0905   51.1463 H   0  0  0  0  0  0  0  0  0  0  0  0
    7.5939   46.0343   53.6537 H   0  0  0  0  0  0  0  0  0  0  0  0
    9.3163   48.0403   54.7175 H   0  0  0  0  0  0  0  0  0  0  0  0
   10.3968   47.8044   53.6232 H   0  0  0  0  0  0  0  0  0  0  0  0
    7.3763   48.8360   53.1721 H   0  0  0  0  0  0  0  0  0  0  0  0
    8.1176   48.7393   51.8078 H   0  0  0  0  0  0  0  0  0  0  0  0
    5.1045   47.5027   54.6312 H   0  0  0  0  0  0  0  0  0  0  0  0
    5.4062   46.4175   56.0305 H   0  0  0  0  0  0  0  0  0  0  0  0
    6.0443   45.9884   54.4071 H   0  0  0  0  0  0  0  0  0  0  0  0
  1  2  1  0
  2  3  2  0
  3  4  1  0
  4  5  2  0
  5  6  1  0
  6  7  1  0
  7  8  2  0
  7  9  1  0
  9 10  2  0
 10 11  1  0
 10 12  1  0
 12 13  2  0
 13 14  1  0
 14 15  2  0
 15 16  1  0
 16 17  1  0
 17 18  1  0
 18 19  1  0
 19 20  1  0
  5 21  1  0
 21 22  1  0
 21 23  2  0
 23  2  1  0
 15  9  1  0
 20 18  1  0
  1 24  1  0
  1 25  1  0
  1 26  1  0
  3 27  1  0
  4 28  1  0
  6 29  1  0
 12 30  1  0
 13 31  1  0
 14 32  1  0
 17 33  1  0
 17 34  1  0
 18 35  1  0
 19 36  1  0
 19 37  1  0
 20 38  1  0
 20 39  1  0
 22 40  1  0
 22 41  1  0
 22 42  1  0
M  END
>  <meeko>  (4) 
{"is_sidechain": false}

>  <CID>  (4) 
Z2996605995

>  <pose_index>  (4) 
5

>  <docking_score>  (4) 
-8.652

>  <rmsd_to_best_selected>  (4) 
1.597582087177011

>  <MWT>  (4) 
330.81499999999966

>  <TPSA>  (4) 
51.22

>  <logP>  (4) 
4.392940000000003

>  <HBD>  (4) 
1

>  <HBA>  (4) 
3

>  <SMILES>  (4) 
[H]c1c(C([H])([H])[H])nc(C([H])([H])[H])c(N([H])C(=O)c2c(Cl)c([H])c([H])c([H])c2OC([H])([H])C2([H])C([H])([H])C2([H])[H])c1[H]

$$$$
Z2996605995_pose6
     RDKit          3D

 42 44  0  0  0  0  0  0  0  0999 V2000
    0.5635   45.6535   56.3623 C   0  0  0  0  0  0  0  0  0  0  0  0
    1.6615   45.3410   55.3923 C   0  0  0  0  0  0  0  0  0  0  0  0
    1.4974   44.3499   54.4407 C   0  0  0  0  0  0  0  0  0  0  0  0
    2.5484   44.0843   53.5694 C   0  0  0  0  0  0  0  0  0  0  0  0
    3.7549   44.7940   53.6612 C   0  0  0  0  0  0  0  0  0  0  0  0
    4.7443   44.4159   52.7259 N   0  0  0  0  0  0  0  0  0  0  0  0
    4.9732   44.9449   51.4717 C   0  0  0  0  0  0  0  0  0  0  0  0
    4.4084   45.9026   50.9637 O   0  0  0  0  0  0  0  0  0  0  0  0
    6.0985   44.3180   50.7315 C   0  0  0  0  0  0  0  0  0  0  0  0
    6.1108   42.9419   50.4671 C   0  0  0  0  0  0  0  0  0  0  0  0
    4.9028   41.8565   51.0610 Cl  0  0  0  0  0  0  0  0  0  0  0  0
    7.1657   42.3797   49.7378 C   0  0  0  0  0  0  0  0  0  0  0  0
    8.2154   43.1769   49.2772 C   0  0  0  0  0  0  0  0  0  0  0  0
    8.2163   44.5438   49.5438 C   0  0  0  0  0  0  0  0  0  0  0  0
    7.1552   45.1108   50.2506 C   0  0  0  0  0  0  0  0  0  0  0  0
    7.2066   46.4526   50.5348 O   0  0  0  0  0  0  0  0  0  0  0  0
    8.4270   46.7742   51.2198 C   0  0  0  0  0  0  0  0  0  0  0  0
    8.1059   46.9242   52.6748 C   0  0  0  0  0  0  0  0  0  0  0  0
    8.4775   45.8454   53.6595 C   0  0  0  0  0  0  0  0  0  0  0  0
    9.2003   47.1649   53.6819 C   0  0  0  0  0  0  0  0  0  0  0  0
    3.8246   45.8122   54.6204 C   0  0  0  0  0  0  0  0  0  0  0  0
    4.9658   46.7730   54.7603 C   0  0  0  0  0  0  0  0  0  0  0  0
    2.7952   46.0682   55.4831 N   0  0  0  0  0  0  0  0  0  0  0  0
    1.0003   45.9724   57.3202 H   0  0  0  0  0  0  0  0  0  0  0  0
   -0.0638   46.4618   55.9582 H   0  0  0  0  0  0  0  0  0  0  0  0
   -0.0522   44.7559   56.5209 H   0  0  0  0  0  0  0  0  0  0  0  0
    0.5562   43.7844   54.3748 H   0  0  0  0  0  0  0  0  0  0  0  0
    2.4322   43.3080   52.7987 H   0  0  0  0  0  0  0  0  0  0  0  0
    5.5182   43.8774   53.1032 H   0  0  0  0  0  0  0  0  0  0  0  0
    7.1675   41.3003   49.5259 H   0  0  0  0  0  0  0  0  0  0  0  0
    9.0397   42.7264   48.7050 H   0  0  0  0  0  0  0  0  0  0  0  0
    9.0497   45.1735   49.1989 H   0  0  0  0  0  0  0  0  0  0  0  0
    9.1599   45.9660   51.0792 H   0  0  0  0  0  0  0  0  0  0  0  0
    8.8584   47.7047   50.8224 H   0  0  0  0  0  0  0  0  0  0  0  0
    7.1737   47.4393   52.3999 H   0  0  0  0  0  0  0  0  0  0  0  0
    7.7867   45.5828   54.4742 H   0  0  0  0  0  0  0  0  0  0  0  0
    8.7842   44.7920   53.5799 H   0  0  0  0  0  0  0  0  0  0  0  0
    9.0378   47.8668   54.5131 H   0  0  0  0  0  0  0  0  0  0  0  0
   10.2541   47.4752   53.6255 H   0  0  0  0  0  0  0  0  0  0  0  0
    5.8002   46.2783   55.2789 H   0  0  0  0  0  0  0  0  0  0  0  0
    5.2955   47.0986   53.7627 H   0  0  0  0  0  0  0  0  0  0  0  0
    4.6394   47.6477   55.3422 H   0  0  0  0  0  0  0  0  0  0  0  0
  1  2  1  0
  2  3  2  0
  3  4  1  0
  4  5  2  0
  5  6  1  0
  6  7  1  0
  7  8  2  0
  7  9  1  0
  9 10  2  0
 10 11  1  0
 10 12  1  0
 12 13  2  0
 13 14  1  0
 14 15  2  0
 15 16  1  0
 16 17  1  0
 17 18  1  0
 18 19  1  0
 19 20  1  0
  5 21  1  0
 21 22  1  0
 21 23  2  0
 23  2  1  0
 15  9  1  0
 20 18  1  0
  1 24  1  0
  1 25  1  0
  1 26  1  0
  3 27  1  0
  4 28  1  0
  6 29  1  0
 12 30  1  0
 13 31  1  0
 14 32  1  0
 17 33  1  0
 17 34  1  0
 18 35  1  0
 19 36  1  0
 19 37  1  0
 20 38  1  0
 20 39  1  0
 22 40  1  0
 22 41  1  0
 22 42  1  0
M  END
>  <meeko>  (5) 
{"is_sidechain": false}

>  <CID>  (5) 
Z2996605995

>  <pose_index>  (5) 
6

>  <docking_score>  (5) 
-8.122

>  <rmsd_to_best_selected>  (5) 
1.20676712638217

>  <MWT>  (5) 
330.81499999999966

>  <TPSA>  (5) 
51.22

>  <logP>  (5) 
4.392940000000003

>  <HBD>  (5) 
1

>  <HBA>  (5) 
3

>  <SMILES>  (5) 
[H]c1c(C([H])([H])[H])nc(C([H])([H])[H])c(N([H])C(=O)c2c(Cl)c([H])c([H])c([H])c2OC([H])([H])C2([H])C([H])([H])C2([H])[H])c1[H]

$$$$
Z2996605995_pose7
     RDKit          3D

 42 44  0  0  0  0  0  0  0  0999 V2000
    0.6629   45.5433   56.4821 C   0  0  0  0  0  0  0  0  0  0  0  0
    1.7419   45.2092   55.4976 C   0  0  0  0  0  0  0  0  0  0  0  0
    1.4623   44.4334   54.3859 C   0  0  0  0  0  0  0  0  0  0  0  0
    2.4971   44.1363   53.5055 C   0  0  0  0  0  0  0  0  0  0  0  0
    3.7990   44.5987   53.7447 C   0  0  0  0  0  0  0  0  0  0  0  0
    4.7584   44.2138   52.7807 N   0  0  0  0  0  0  0  0  0  0  0  0
    4.9022   44.6859   51.4923 C   0  0  0  0  0  0  0  0  0  0  0  0
    4.2708   45.5906   50.9652 O   0  0  0  0  0  0  0  0  0  0  0  0
    6.0166   44.0672   50.7281 C   0  0  0  0  0  0  0  0  0  0  0  0
    5.7649   43.1957   49.6609 C   0  0  0  0  0  0  0  0  0  0  0  0
    4.1745   42.6820   49.2176 Cl  0  0  0  0  0  0  0  0  0  0  0  0
    6.8323   42.6523   48.9344 C   0  0  0  0  0  0  0  0  0  0  0  0
    8.1511   42.9639   49.2704 C   0  0  0  0  0  0  0  0  0  0  0  0
    8.4106   43.8231   50.3351 C   0  0  0  0  0  0  0  0  0  0  0  0
    7.3492   44.3838   51.0467 C   0  0  0  0  0  0  0  0  0  0  0  0
    7.6393   45.1904   52.1176 O   0  0  0  0  0  0  0  0  0  0  0  0
    8.8701   45.8965   51.8977 C   0  0  0  0  0  0  0  0  0  0  0  0
    8.6080   47.3518   52.1366 C   0  0  0  0  0  0  0  0  0  0  0  0
    7.5589   47.7926   53.1251 C   0  0  0  0  0  0  0  0  0  0  0  0
    9.0171   48.0025   53.4328 C   0  0  0  0  0  0  0  0  0  0  0  0
    3.9900   45.4167   54.8669 C   0  0  0  0  0  0  0  0  0  0  0  0
    5.2675   46.1272   55.1943 C   0  0  0  0  0  0  0  0  0  0  0  0
    2.9747   45.7016   55.7374 N   0  0  0  0  0  0  0  0  0  0  0  0
   -0.2972   45.6419   55.9544 H   0  0  0  0  0  0  0  0  0  0  0  0
    0.5890   44.7413   57.2313 H   0  0  0  0  0  0  0  0  0  0  0  0
    0.9050   46.4921   56.9833 H   0  0  0  0  0  0  0  0  0  0  0  0
    0.4439   44.0600   54.2028 H   0  0  0  0  0  0  0  0  0  0  0  0
    2.2916   43.5310   52.6102 H   0  0  0  0  0  0  0  0  0  0  0  0
    5.5723   43.7293   53.1464 H   0  0  0  0  0  0  0  0  0  0  0  0
    6.6298   41.9744   48.0922 H   0  0  0  0  0  0  0  0  0  0  0  0
    8.9832   42.5316   48.6954 H   0  0  0  0  0  0  0  0  0  0  0  0
    9.4482   44.0590   50.6140 H   0  0  0  0  0  0  0  0  0  0  0  0
    9.6395   45.5348   52.5956 H   0  0  0  0  0  0  0  0  0  0  0  0
    9.2305   45.7329   50.8714 H   0  0  0  0  0  0  0  0  0  0  0  0
    8.8039   47.5459   51.0717 H   0  0  0  0  0  0  0  0  0  0  0  0
    6.9155   48.6549   52.8963 H   0  0  0  0  0  0  0  0  0  0  0  0
    6.7187   47.3017   53.6381 H   0  0  0  0  0  0  0  0  0  0  0  0
    9.4392   49.0183   53.4290 H   0  0  0  0  0  0  0  0  0  0  0  0
    9.6836   47.7285   54.2639 H   0  0  0  0  0  0  0  0  0  0  0  0
    5.2311   47.1507   54.7928 H   0  0  0  0  0  0  0  0  0  0  0  0
    5.3962   46.1659   56.2861 H   0  0  0  0  0  0  0  0  0  0  0  0
    6.1134   45.5867   54.7444 H   0  0  0  0  0  0  0  0  0  0  0  0
  1  2  1  0
  2  3  2  0
  3  4  1  0
  4  5  2  0
  5  6  1  0
  6  7  1  0
  7  8  2  0
  7  9  1  0
  9 10  2  0
 10 11  1  0
 10 12  1  0
 12 13  2  0
 13 14  1  0
 14 15  2  0
 15 16  1  0
 16 17  1  0
 17 18  1  0
 18 19  1  0
 19 20  1  0
  5 21  1  0
 21 22  1  0
 21 23  2  0
 23  2  1  0
 15  9  1  0
 20 18  1  0
  1 24  1  0
  1 25  1  0
  1 26  1  0
  3 27  1  0
  4 28  1  0
  6 29  1  0
 12 30  1  0
 13 31  1  0
 14 32  1  0
 17 33  1  0
 17 34  1  0
 18 35  1  0
 19 36  1  0
 19 37  1  0
 20 38  1  0
 20 39  1  0
 22 40  1  0
 22 41  1  0
 22 42  1  0
M  END
>  <meeko>  (6) 
{"is_sidechain": false}

>  <CID>  (6) 
Z2996605995

>  <pose_index>  (6) 
7

>  <docking_score>  (6) 
-7.829

>  <rmsd_to_best_selected>  (6) 
1.4694850662903884

>  <MWT>  (6) 
330.81499999999966

>  <TPSA>  (6) 
51.22

>  <logP>  (6) 
4.392940000000003

>  <HBD>  (6) 
1

>  <HBA>  (6) 
3

>  <SMILES>  (6) 
[H]c1c(C([H])([H])[H])nc(C([H])([H])[H])c(N([H])C(=O)c2c(Cl)c([H])c([H])c([H])c2OC([H])([H])C2([H])C([H])([H])C2([H])[H])c1[H]

$$$$
Z2996605995_pose8
     RDKit          3D

 42 44  0  0  0  0  0  0  0  0999 V2000
    0.9635   45.5659   56.6400 C   0  0  0  0  0  0  0  0  0  0  0  0
    1.9071   45.3336   55.4991 C   0  0  0  0  0  0  0  0  0  0  0  0
    1.8555   44.1552   54.7753 C   0  0  0  0  0  0  0  0  0  0  0  0
    2.7590   43.9762   53.7326 C   0  0  0  0  0  0  0  0  0  0  0  0
    3.7135   44.9594   53.4318 C   0  0  0  0  0  0  0  0  0  0  0  0
    4.5794   44.6449   52.3598 N   0  0  0  0  0  0  0  0  0  0  0  0
    5.7981   43.9980   52.4151 C   0  0  0  0  0  0  0  0  0  0  0  0
    6.3216   43.5010   53.4017 O   0  0  0  0  0  0  0  0  0  0  0  0
    6.4654   43.8248   51.0999 C   0  0  0  0  0  0  0  0  0  0  0  0
    6.2376   42.6834   50.3198 C   0  0  0  0  0  0  0  0  0  0  0  0
    5.2711   41.3541   50.8532 Cl  0  0  0  0  0  0  0  0  0  0  0  0
    6.8536   42.5584   49.0675 C   0  0  0  0  0  0  0  0  0  0  0  0
    7.7021   43.5582   48.5900 C   0  0  0  0  0  0  0  0  0  0  0  0
    7.9415   44.6928   49.3633 C   0  0  0  0  0  0  0  0  0  0  0  0
    7.3124   44.8304   50.6015 C   0  0  0  0  0  0  0  0  0  0  0  0
    7.6035   45.9372   51.3580 O   0  0  0  0  0  0  0  0  0  0  0  0
    8.9580   45.8817   51.8323 C   0  0  0  0  0  0  0  0  0  0  0  0
    9.0466   46.7373   53.0579 C   0  0  0  0  0  0  0  0  0  0  0  0
    7.9649   47.7366   53.3785 C   0  0  0  0  0  0  0  0  0  0  0  0
    8.1233   46.5036   54.2255 C   0  0  0  0  0  0  0  0  0  0  0  0
    3.6695   46.1424   54.1817 C   0  0  0  0  0  0  0  0  0  0  0  0
    4.4998   47.3581   53.9030 C   0  0  0  0  0  0  0  0  0  0  0  0
    2.7871   46.3159   55.2118 N   0  0  0  0  0  0  0  0  0  0  0  0
    0.4860   46.5503   56.5262 H   0  0  0  0  0  0  0  0  0  0  0  0
    0.1918   44.7821   56.6430 H   0  0  0  0  0  0  0  0  0  0  0  0
    1.5203   45.5359   57.5882 H   0  0  0  0  0  0  0  0  0  0  0  0
    1.1167   43.3775   55.0189 H   0  0  0  0  0  0  0  0  0  0  0  0
    2.7244   43.0523   53.1365 H   0  0  0  0  0  0  0  0  0  0  0  0
    4.1576   44.6717   51.4371 H   0  0  0  0  0  0  0  0  0  0  0  0
    6.6665   41.6640   48.4551 H   0  0  0  0  0  0  0  0  0  0  0  0
    8.1810   43.4509   47.6055 H   0  0  0  0  0  0  0  0  0  0  0  0
    8.6229   45.4760   48.9995 H   0  0  0  0  0  0  0  0  0  0  0  0
    9.2261   44.8439   52.0797 H   0  0  0  0  0  0  0  0  0  0  0  0
    9.6522   46.2430   51.0593 H   0  0  0  0  0  0  0  0  0  0  0  0
   10.1374   46.7870   52.9252 H   0  0  0  0  0  0  0  0  0  0  0  0
    8.2308   48.7226   53.7874 H   0  0  0  0  0  0  0  0  0  0  0  0
    7.1365   48.1929   52.8167 H   0  0  0  0  0  0  0  0  0  0  0  0
    8.5050   46.5882   55.2537 H   0  0  0  0  0  0  0  0  0  0  0  0
    7.4586   45.6853   54.5393 H   0  0  0  0  0  0  0  0  0  0  0  0
    3.8669   48.2558   53.9624 H   0  0  0  0  0  0  0  0  0  0  0  0
    5.3074   47.4289   54.6465 H   0  0  0  0  0  0  0  0  0  0  0  0
    4.9346   47.2820   52.8954 H   0  0  0  0  0  0  0  0  0  0  0  0
  1  2  1  0
  2  3  2  0
  3  4  1  0
  4  5  2  0
  5  6  1  0
  6  7  1  0
  7  8  2  0
  7  9  1  0
  9 10  2  0
 10 11  1  0
 10 12  1  0
 12 13  2  0
 13 14  1  0
 14 15  2  0
 15 16  1  0
 16 17  1  0
 17 18  1  0
 18 19  1  0
 19 20  1  0
  5 21  1  0
 21 22  1  0
 21 23  2  0
 23  2  1  0
 15  9  1  0
 20 18  1  0
  1 24  1  0
  1 25  1  0
  1 26  1  0
  3 27  1  0
  4 28  1  0
  6 29  1  0
 12 30  1  0
 13 31  1  0
 14 32  1  0
 17 33  1  0
 17 34  1  0
 18 35  1  0
 19 36  1  0
 19 37  1  0
 20 38  1  0
 20 39  1  0
 22 40  1  0
 22 41  1  0
 22 42  1  0
M  END
>  <meeko>  (7) 
{"is_sidechain": false}

>  <CID>  (7) 
Z2996605995

>  <pose_index>  (7) 
8

>  <docking_score>  (7) 
-7.726

>  <rmsd_to_best_selected>  (7) 
1.761948358520498

>  <MWT>  (7) 
330.81499999999966

>  <TPSA>  (7) 
51.22

>  <logP>  (7) 
4.392940000000003

>  <HBD>  (7) 
1

>  <HBA>  (7) 
3

>  <SMILES>  (7) 
[H]c1c(C([H])([H])[H])nc(C([H])([H])[H])c(N([H])C(=O)c2c(Cl)c([H])c([H])c([H])c2OC([H])([H])C2([H])C([H])([H])C2([H])[H])c1[H]

$$$$
Z2996605995_pose10
     RDKit          3D

 42 44  0  0  0  0  0  0  0  0999 V2000
    0.7139   45.2560   56.6551 C   0  0  0  0  0  0  0  0  0  0  0  0
    1.7673   44.9803   55.6261 C   0  0  0  0  0  0  0  0  0  0  0  0
    1.6399   43.9058   54.7627 C   0  0  0  0  0  0  0  0  0  0  0  0
    2.6492   43.6807   53.8309 C   0  0  0  0  0  0  0  0  0  0  0  0
    3.7782   44.5105   53.7783 C   0  0  0  0  0  0  0  0  0  0  0  0
    4.7324   44.1609   52.7970 N   0  0  0  0  0  0  0  0  0  0  0  0
    4.7876   44.5756   51.4810 C   0  0  0  0  0  0  0  0  0  0  0  0
    4.0603   45.3931   50.9371 O   0  0  0  0  0  0  0  0  0  0  0  0
    5.9253   44.0191   50.7043 C   0  0  0  0  0  0  0  0  0  0  0  0
    5.7110   43.1127   49.6592 C   0  0  0  0  0  0  0  0  0  0  0  0
    4.1497   42.4864   49.2586 Cl  0  0  0  0  0  0  0  0  0  0  0  0
    6.7967   42.6279   48.9193 C   0  0  0  0  0  0  0  0  0  0  0  0
    8.0990   43.0327   49.2205 C   0  0  0  0  0  0  0  0  0  0  0  0
    8.3228   43.9267   50.2652 C   0  0  0  0  0  0  0  0  0  0  0  0
    7.2404   44.4284   50.9888 C   0  0  0  0  0  0  0  0  0  0  0  0
    7.4975   45.2726   52.0401 O   0  0  0  0  0  0  0  0  0  0  0  0
    8.6444   46.0901   51.7598 C   0  0  0  0  0  0  0  0  0  0  0  0
    8.3659   47.4615   52.2940 C   0  0  0  0  0  0  0  0  0  0  0  0
    8.2830   47.7065   53.7784 C   0  0  0  0  0  0  0  0  0  0  0  0
    9.4465   48.2469   52.9917 C   0  0  0  0  0  0  0  0  0  0  0  0
    3.8086   45.6019   54.6553 C   0  0  0  0  0  0  0  0  0  0  0  0
    4.8496   46.6803   54.6373 C   0  0  0  0  0  0  0  0  0  0  0  0
    2.8221   45.8210   55.5772 N   0  0  0  0  0  0  0  0  0  0  0  0
    1.1779   45.3031   57.6513 H   0  0  0  0  0  0  0  0  0  0  0  0
    0.2260   46.2164   56.4321 H   0  0  0  0  0  0  0  0  0  0  0  0
   -0.0356   44.4511   56.6373 H   0  0  0  0  0  0  0  0  0  0  0  0
    0.7616   43.2454   54.8118 H   0  0  0  0  0  0  0  0  0  0  0  0
    2.5599   42.8406   53.1265 H   0  0  0  0  0  0  0  0  0  0  0  0
    5.5993   43.7698   53.1523 H   0  0  0  0  0  0  0  0  0  0  0  0
    6.6222   41.9222   48.0938 H   0  0  0  0  0  0  0  0  0  0  0  0
    8.9459   42.6466   48.6342 H   0  0  0  0  0  0  0  0  0  0  0  0
    9.3478   44.2356   50.5184 H   0  0  0  0  0  0  0  0  0  0  0  0
    9.5338   45.6696   52.2518 H   0  0  0  0  0  0  0  0  0  0  0  0
    8.8351   46.1291   50.6772 H   0  0  0  0  0  0  0  0  0  0  0  0
    7.7003   47.6434   51.4373 H   0  0  0  0  0  0  0  0  0  0  0  0
    7.5245   48.3941   54.1807 H   0  0  0  0  0  0  0  0  0  0  0  0
    8.1752   47.0673   54.6671 H   0  0  0  0  0  0  0  0  0  0  0  0
    9.5381   49.3294   52.8190 H   0  0  0  0  0  0  0  0  0  0  0  0
   10.5409   48.1662   53.0673 H   0  0  0  0  0  0  0  0  0  0  0  0
    5.8420   46.2347   54.8005 H   0  0  0  0  0  0  0  0  0  0  0  0
    4.8324   47.1904   53.6629 H   0  0  0  0  0  0  0  0  0  0  0  0
    4.6383   47.4071   55.4355 H   0  0  0  0  0  0  0  0  0  0  0  0
  1  2  1  0
  2  3  2  0
  3  4  1  0
  4  5  2  0
  5  6  1  0
  6  7  1  0
  7  8  2  0
  7  9  1  0
  9 10  2  0
 10 11  1  0
 10 12  1  0
 12 13  2  0
 13 14  1  0
 14 15  2  0
 15 16  1  0
 16 17  1  0
 17 18  1  0
 18 19  1  0
 19 20  1  0
  5 21  1  0
 21 22  1  0
 21 23  2  0
 23  2  1  0
 15  9  1  0
 20 18  1  0
  1 24  1  0
  1 25  1  0
  1 26  1  0
  3 27  1  0
  4 28  1  0
  6 29  1  0
 12 30  1  0
 13 31  1  0
 14 32  1  0
 17 33  1  0
 17 34  1  0
 18 35  1  0
 19 36  1  0
 19 37  1  0
 20 38  1  0
 20 39  1  0
 22 40  1  0
 22 41  1  0
 22 42  1  0
M  END
>  <meeko>  (8) 
{"is_sidechain": false}

>  <CID>  (8) 
Z2996605995

>  <pose_index>  (8) 
10

>  <docking_score>  (8) 
-7.631

>  <rmsd_to_best_selected>  (8) 
1.1906643419859098

>  <MWT>  (8) 
330.81499999999966

>  <TPSA>  (8) 
51.22

>  <logP>  (8) 
4.392940000000003

>  <HBD>  (8) 
1

>  <HBA>  (8) 
3

>  <SMILES>  (8) 
[H]c1c(C([H])([H])[H])nc(C([H])([H])[H])c(N([H])C(=O)c2c(Cl)c([H])c([H])c([H])c2OC([H])([H])C2([H])C([H])([H])C2([H])[H])c1[H]

$$$$
