Z3000762692_pose2
     RDKit          3D

 45 48  0  0  0  0  0  0  0  0999 V2000
    6.2732   43.9012   54.2382 O   0  0  0  0  0  0  0  0  0  0  0  0
    6.1414   44.7490   53.3581 C   0  0  0  0  0  0  0  0  0  0  0  0
    4.9187   45.1060   52.8607 N   0  0  0  0  0  0  0  0  0  0  0  0
    3.6680   44.4833   53.2666 C   0  0  1  0  0  0  0  0  0  0  0  0
    2.9461   45.3149   54.3293 C   0  0  0  0  0  0  0  0  0  0  0  0
    2.1769   46.3508   53.9120 N   0  0  0  0  0  0  0  0  0  0  0  0
    1.5423   47.0532   54.8675 C   0  0  0  0  0  0  0  0  0  0  0  0
    1.6358   46.7658   56.2078 C   0  0  0  0  0  0  0  0  0  0  0  0
    2.4321   45.6953   56.5322 C   0  0  0  0  0  0  0  0  0  0  0  0
    3.0910   44.9548   55.6240 N   0  0  0  0  0  0  0  0  0  0  0  0
    2.7798   44.3557   52.0471 C   0  0  0  0  0  0  0  0  0  0  0  0
    2.8124   43.1095   51.1934 C   0  0  0  0  0  0  0  0  0  0  0  0
    1.6069   43.4054   52.0394 C   0  0  0  0  0  0  0  0  0  0  0  0
    7.3519   45.4367   52.7924 C   0  0  0  0  0  0  0  0  0  0  0  0
    7.5321   46.7831   53.1624 C   0  0  0  0  0  0  0  0  0  0  0  0
    8.6224   47.5179   52.6992 C   0  0  0  0  0  0  0  0  0  0  0  0
    9.5501   46.9184   51.8556 C   0  0  0  0  0  0  0  0  0  0  0  0
    9.3901   45.5827   51.4787 C   0  0  0  0  0  0  0  0  0  0  0  0
    8.3062   44.8285   51.9522 C   0  0  0  0  0  0  0  0  0  0  0  0
    8.1135   43.5218   51.5821 O   0  0  0  0  0  0  0  0  0  0  0  0
    7.4899   43.3007   50.3167 C   0  0  0  0  0  0  0  0  0  0  0  0
    8.4989   42.6392   49.4265 C   0  0  0  0  0  0  0  0  0  0  0  0
    8.2401   42.4734   47.9519 C   0  0  0  0  0  0  0  0  0  0  0  0
    9.2790   43.4524   48.4255 C   0  0  0  0  0  0  0  0  0  0  0  0
    4.8568   45.8067   52.1273 H   0  0  0  0  0  0  0  0  0  0  0  0
    3.8890   43.4968   53.7002 H   0  0  0  0  0  0  0  0  0  0  0  0
    0.9153   47.9029   54.5595 H   0  0  0  0  0  0  0  0  0  0  0  0
    1.1069   47.3551   56.9714 H   0  0  0  0  0  0  0  0  0  0  0  0
    2.5367   45.4289   57.5943 H   0  0  0  0  0  0  0  0  0  0  0  0
    2.9124   45.4320   51.8623 H   0  0  0  0  0  0  0  0  0  0  0  0
    2.7489   43.1917   50.0983 H   0  0  0  0  0  0  0  0  0  0  0  0
    3.4987   42.2561   51.0901 H   0  0  0  0  0  0  0  0  0  0  0  0
    0.6613   43.7037   51.5631 H   0  0  0  0  0  0  0  0  0  0  0  0
    1.0463   42.8575   52.8111 H   0  0  0  0  0  0  0  0  0  0  0  0
    6.8000   47.2634   53.8282 H   0  0  0  0  0  0  0  0  0  0  0  0
    8.7480   48.5684   53.0003 H   0  0  0  0  0  0  0  0  0  0  0  0
   10.4101   47.4954   51.4848 H   0  0  0  0  0  0  0  0  0  0  0  0
   10.1224   45.1170   50.8028 H   0  0  0  0  0  0  0  0  0  0  0  0
    6.6125   42.6487   50.4392 H   0  0  0  0  0  0  0  0  0  0  0  0
    7.1523   44.2520   49.8796 H   0  0  0  0  0  0  0  0  0  0  0  0
    8.7556   41.9561   50.2496 H   0  0  0  0  0  0  0  0  0  0  0  0
    8.5480   41.5497   47.4401 H   0  0  0  0  0  0  0  0  0  0  0  0
    7.3511   42.5347   47.3070 H   0  0  0  0  0  0  0  0  0  0  0  0
   10.3465   43.2444   48.2604 H   0  0  0  0  0  0  0  0  0  0  0  0
    9.4641   44.5256   48.2707 H   0  0  0  0  0  0  0  0  0  0  0  0
  1  2  2  0
  2  3  1  0
  3  4  1  0
  4  5  1  0
  5  6  2  0
  6  7  1  0
  7  8  2  0
  8  9  1  0
  9 10  2  0
  4 11  1  0
 11 12  1  0
 12 13  1  0
  2 14  1  0
 14 15  2  0
 15 16  1  0
 16 17  2  0
 17 18  1  0
 18 19  2  0
 19 20  1  0
 20 21  1  0
 21 22  1  0
 22 23  1  0
 23 24  1  0
 10  5  1  0
 13 11  1  0
 19 14  1  0
 24 22  1  0
  3 25  1  0
  4 26  1  1
  7 27  1  0
  8 28  1  0
  9 29  1  0
 11 30  1  0
 12 31  1  0
 12 32  1  0
 13 33  1  0
 13 34  1  0
 15 35  1  0
 16 36  1  0
 17 37  1  0
 18 38  1  0
 21 39  1  0
 21 40  1  0
 22 41  1  0
 23 42  1  0
 23 43  1  0
 24 44  1  0
 24 45  1  0
M  END
>  <meeko>  (1) 
{"is_sidechain": false}

>  <CID>  (1) 
Z3000762692

>  <pose_index>  (1) 
2

>  <docking_score>  (1) 
-7.905

>  <rmsd_to_best_selected>  (1) 
0.0

>  <MWT>  (1) 
323.3959999999996

>  <TPSA>  (1) 
64.11

>  <logP>  (1) 
3.1465000000000023

>  <HBD>  (1) 
1

>  <HBA>  (1) 
4

>  <SMILES>  (1) 
[H]c1nc(C([H])(N([H])C(=O)c2c([H])c([H])c([H])c([H])c2OC([H])([H])C2([H])C([H])([H])C2([H])[H])C2([H])C([H])([H])C2([H])[H])nc([H])c1[H]

$$$$
Z3000762692_pose3
     RDKit          3D

 45 48  0  0  0  0  0  0  0  0999 V2000
    6.5922   43.9214   54.4168 O   0  0  0  0  0  0  0  0  0  0  0  0
    6.3495   44.7369   53.5314 C   0  0  0  0  0  0  0  0  0  0  0  0
    5.0859   44.9414   53.0483 N   0  0  0  0  0  0  0  0  0  0  0  0
    3.9235   44.1784   53.4776 C   0  0  1  0  0  0  0  0  0  0  0  0
    2.9889   45.0239   54.3461 C   0  0  0  0  0  0  0  0  0  0  0  0
    1.8750   44.4314   54.8456 N   0  0  0  0  0  0  0  0  0  0  0  0
    1.0822   45.1946   55.6182 C   0  0  0  0  0  0  0  0  0  0  0  0
    1.3514   46.5082   55.9182 C   0  0  0  0  0  0  0  0  0  0  0  0
    2.5044   47.0179   55.3730 C   0  0  0  0  0  0  0  0  0  0  0  0
    3.3383   46.3063   54.5940 N   0  0  0  0  0  0  0  0  0  0  0  0
    3.1751   43.7149   52.2460 C   0  0  0  0  0  0  0  0  0  0  0  0
    3.2856   44.4723   50.9431 C   0  0  0  0  0  0  0  0  0  0  0  0
    3.9116   43.1126   51.0730 C   0  0  0  0  0  0  0  0  0  0  0  0
    7.4615   45.5572   52.9415 C   0  0  0  0  0  0  0  0  0  0  0  0
    7.5419   46.8961   53.3697 C   0  0  0  0  0  0  0  0  0  0  0  0
    8.5371   47.7475   52.8904 C   0  0  0  0  0  0  0  0  0  0  0  0
    9.4664   47.2737   51.9719 C   0  0  0  0  0  0  0  0  0  0  0  0
    9.4052   45.9477   51.5371 C   0  0  0  0  0  0  0  0  0  0  0  0
    8.4187   45.0774   52.0255 C   0  0  0  0  0  0  0  0  0  0  0  0
    8.3234   43.7769   51.5997 O   0  0  0  0  0  0  0  0  0  0  0  0
    8.6032   43.5325   50.2204 C   0  0  0  0  0  0  0  0  0  0  0  0
    7.2959   43.2760   49.5340 C   0  0  0  0  0  0  0  0  0  0  0  0
    7.2425   42.9511   48.0633 C   0  0  0  0  0  0  0  0  0  0  0  0
    6.9352   41.8854   49.0795 C   0  0  0  0  0  0  0  0  0  0  0  0
    4.9323   45.6212   52.3087 H   0  0  0  0  0  0  0  0  0  0  0  0
    4.2637   43.3224   54.0788 H   0  0  0  0  0  0  0  0  0  0  0  0
    0.1688   44.7430   56.0325 H   0  0  0  0  0  0  0  0  0  0  0  0
    0.6869   47.1122   56.5534 H   0  0  0  0  0  0  0  0  0  0  0  0
    2.7599   48.0665   55.5854 H   0  0  0  0  0  0  0  0  0  0  0  0
    2.3464   43.3940   52.8943 H   0  0  0  0  0  0  0  0  0  0  0  0
    2.3965   44.6098   50.3102 H   0  0  0  0  0  0  0  0  0  0  0  0
    3.6475   45.4696   50.6525 H   0  0  0  0  0  0  0  0  0  0  0  0
    3.4803   42.2555   50.5349 H   0  0  0  0  0  0  0  0  0  0  0  0
    4.9208   42.7041   50.9165 H   0  0  0  0  0  0  0  0  0  0  0  0
    6.8074   47.2770   54.0946 H   0  0  0  0  0  0  0  0  0  0  0  0
    8.5863   48.7900   53.2378 H   0  0  0  0  0  0  0  0  0  0  0  0
   10.2501   47.9429   51.5874 H   0  0  0  0  0  0  0  0  0  0  0  0
   10.1387   45.5815   50.8036 H   0  0  0  0  0  0  0  0  0  0  0  0
    9.0950   44.4103   49.7757 H   0  0  0  0  0  0  0  0  0  0  0  0
    9.2754   42.6691   50.1085 H   0  0  0  0  0  0  0  0  0  0  0  0
    6.8269   44.0353   50.1772 H   0  0  0  0  0  0  0  0  0  0  0  0
    6.4368   43.3633   47.4380 H   0  0  0  0  0  0  0  0  0  0  0  0
    7.9437   43.0431   47.2207 H   0  0  0  0  0  0  0  0  0  0  0  0
    5.9049   41.5185   49.1971 H   0  0  0  0  0  0  0  0  0  0  0  0
    7.3188   40.8756   49.2874 H   0  0  0  0  0  0  0  0  0  0  0  0
  1  2  2  0
  2  3  1  0
  3  4  1  0
  4  5  1  0
  5  6  2  0
  6  7  1  0
  7  8  2  0
  8  9  1  0
  9 10  2  0
  4 11  1  0
 11 12  1  0
 12 13  1  0
  2 14  1  0
 14 15  2  0
 15 16  1  0
 16 17  2  0
 17 18  1  0
 18 19  2  0
 19 20  1  0
 20 21  1  0
 21 22  1  0
 22 23  1  0
 23 24  1  0
 10  5  1  0
 13 11  1  0
 19 14  1  0
 24 22  1  0
  3 25  1  0
  4 26  1  1
  7 27  1  0
  8 28  1  0
  9 29  1  0
 11 30  1  0
 12 31  1  0
 12 32  1  0
 13 33  1  0
 13 34  1  0
 15 35  1  0
 16 36  1  0
 17 37  1  0
 18 38  1  0
 21 39  1  0
 21 40  1  0
 22 41  1  0
 23 42  1  0
 23 43  1  0
 24 44  1  0
 24 45  1  0
M  END
>  <meeko>  (2) 
{"is_sidechain": false}

>  <CID>  (2) 
Z3000762692

>  <pose_index>  (2) 
3

>  <docking_score>  (2) 
-7.825

>  <rmsd_to_best_selected>  (2) 
1.663299694679563

>  <MWT>  (2) 
323.3959999999996

>  <TPSA>  (2) 
64.11

>  <logP>  (2) 
3.1465000000000023

>  <HBD>  (2) 
1

>  <HBA>  (2) 
4

>  <SMILES>  (2) 
[H]c1nc(C([H])(N([H])C(=O)c2c([H])c([H])c([H])c([H])c2OC([H])([H])C2([H])C([H])([H])C2([H])[H])C2([H])C([H])([H])C2([H])[H])nc([H])c1[H]

$$$$
Z3000762692_pose4
     RDKit          3D

 45 48  0  0  0  0  0  0  0  0999 V2000
    6.6915   43.7263   53.8310 O   0  0  0  0  0  0  0  0  0  0  0  0
    6.4123   44.7489   53.2104 C   0  0  0  0  0  0  0  0  0  0  0  0
    5.1221   45.1074   52.9278 N   0  0  0  0  0  0  0  0  0  0  0  0
    3.9650   44.2929   53.2670 C   0  0  1  0  0  0  0  0  0  0  0  0
    3.0627   44.9984   54.2821 C   0  0  0  0  0  0  0  0  0  0  0  0
    1.8113   45.3430   53.8899 N   0  0  0  0  0  0  0  0  0  0  0  0
    1.0372   45.9476   54.8081 C   0  0  0  0  0  0  0  0  0  0  0  0
    1.4486   46.2129   56.0921 C   0  0  0  0  0  0  0  0  0  0  0  0
    2.7290   45.8202   56.3985 C   0  0  0  0  0  0  0  0  0  0  0  0
    3.5497   45.2122   55.5250 N   0  0  0  0  0  0  0  0  0  0  0  0
    3.1783   44.0298   52.0007 C   0  0  0  0  0  0  0  0  0  0  0  0
    3.6602   44.5535   50.6680 C   0  0  0  0  0  0  0  0  0  0  0  0
    3.6988   43.0782   50.9497 C   0  0  0  0  0  0  0  0  0  0  0  0
    7.5089   45.6618   52.7370 C   0  0  0  0  0  0  0  0  0  0  0  0
    7.4414   46.9962   53.1791 C   0  0  0  0  0  0  0  0  0  0  0  0
    8.4086   47.9287   52.8040 C   0  0  0  0  0  0  0  0  0  0  0  0
    9.4560   47.5412   51.9777 C   0  0  0  0  0  0  0  0  0  0  0  0
    9.5413   46.2204   51.5297 C   0  0  0  0  0  0  0  0  0  0  0  0
    8.5835   45.2695   51.9145 C   0  0  0  0  0  0  0  0  0  0  0  0
    8.6317   43.9723   51.4725 O   0  0  0  0  0  0  0  0  0  0  0  0
    8.4962   43.7697   50.0653 C   0  0  0  0  0  0  0  0  0  0  0  0
    7.1692   43.1139   49.8302 C   0  0  0  0  0  0  0  0  0  0  0  0
    6.8284   42.5117   48.4921 C   0  0  0  0  0  0  0  0  0  0  0  0
    7.0764   41.6175   49.6758 C   0  0  0  0  0  0  0  0  0  0  0  0
    4.9379   45.9583   52.4046 H   0  0  0  0  0  0  0  0  0  0  0  0
    4.3138   43.3524   53.7184 H   0  0  0  0  0  0  0  0  0  0  0  0
    0.0196   46.2460   54.5157 H   0  0  0  0  0  0  0  0  0  0  0  0
    0.7956   46.7072   56.8264 H   0  0  0  0  0  0  0  0  0  0  0  0
    3.1030   46.0141   57.4147 H   0  0  0  0  0  0  0  0  0  0  0  0
    2.2490   44.1159   52.5830 H   0  0  0  0  0  0  0  0  0  0  0  0
    2.9382   44.9557   49.9420 H   0  0  0  0  0  0  0  0  0  0  0  0
    4.3994   45.3031   50.3492 H   0  0  0  0  0  0  0  0  0  0  0  0
    3.0052   42.4012   50.4296 H   0  0  0  0  0  0  0  0  0  0  0  0
    4.4781   42.3023   50.9220 H   0  0  0  0  0  0  0  0  0  0  0  0
    6.6124   47.3089   53.8310 H   0  0  0  0  0  0  0  0  0  0  0  0
    8.3423   48.9670   53.1611 H   0  0  0  0  0  0  0  0  0  0  0  0
   10.2186   48.2744   51.6760 H   0  0  0  0  0  0  0  0  0  0  0  0
   10.3682   45.9227   50.8682 H   0  0  0  0  0  0  0  0  0  0  0  0
    8.5357   44.7360   49.5412 H   0  0  0  0  0  0  0  0  0  0  0  0
    9.3129   43.1389   49.6843 H   0  0  0  0  0  0  0  0  0  0  0  0
    6.7001   43.8634   50.4845 H   0  0  0  0  0  0  0  0  0  0  0  0
    5.8117   42.6158   48.0852 H   0  0  0  0  0  0  0  0  0  0  0  0
    7.2433   42.5895   47.4763 H   0  0  0  0  0  0  0  0  0  0  0  0
    6.2411   41.0680   50.1345 H   0  0  0  0  0  0  0  0  0  0  0  0
    7.7475   40.7712   49.8839 H   0  0  0  0  0  0  0  0  0  0  0  0
  1  2  2  0
  2  3  1  0
  3  4  1  0
  4  5  1  0
  5  6  2  0
  6  7  1  0
  7  8  2  0
  8  9  1  0
  9 10  2  0
  4 11  1  0
 11 12  1  0
 12 13  1  0
  2 14  1  0
 14 15  2  0
 15 16  1  0
 16 17  2  0
 17 18  1  0
 18 19  2  0
 19 20  1  0
 20 21  1  0
 21 22  1  0
 22 23  1  0
 23 24  1  0
 10  5  1  0
 13 11  1  0
 19 14  1  0
 24 22  1  0
  3 25  1  0
  4 26  1  1
  7 27  1  0
  8 28  1  0
  9 29  1  0
 11 30  1  0
 12 31  1  0
 12 32  1  0
 13 33  1  0
 13 34  1  0
 15 35  1  0
 16 36  1  0
 17 37  1  0
 18 38  1  0
 21 39  1  0
 21 40  1  0
 22 41  1  0
 23 42  1  0
 23 43  1  0
 24 44  1  0
 24 45  1  0
M  END
>  <meeko>  (3) 
{"is_sidechain": false}

>  <CID>  (3) 
Z3000762692

>  <pose_index>  (3) 
4

>  <docking_score>  (3) 
-7.525

>  <rmsd_to_best_selected>  (3) 
1.7369495640043957

>  <MWT>  (3) 
323.3959999999996

>  <TPSA>  (3) 
64.11

>  <logP>  (3) 
3.1465000000000023

>  <HBD>  (3) 
1

>  <HBA>  (3) 
4

>  <SMILES>  (3) 
[H]c1nc(C([H])(N([H])C(=O)c2c([H])c([H])c([H])c([H])c2OC([H])([H])C2([H])C([H])([H])C2([H])[H])C2([H])C([H])([H])C2([H])[H])nc([H])c1[H]

$$$$
Z3000762692_pose5
     RDKit          3D

 45 48  0  0  0  0  0  0  0  0999 V2000
    5.0912   45.9881   51.4097 O   0  0  0  0  0  0  0  0  0  0  0  0
    5.8534   45.5220   52.2542 C   0  0  0  0  0  0  0  0  0  0  0  0
    5.4618   44.5629   53.1469 N   0  0  0  0  0  0  0  0  0  0  0  0
    4.1034   44.0482   53.2355 C   0  0  1  0  0  0  0  0  0  0  0  0
    3.2229   44.9413   54.1140 C   0  0  0  0  0  0  0  0  0  0  0  0
    2.0768   44.4123   54.6106 N   0  0  0  0  0  0  0  0  0  0  0  0
    1.3323   45.2151   55.3917 C   0  0  0  0  0  0  0  0  0  0  0  0
    1.6815   46.5064   55.7028 C   0  0  0  0  0  0  0  0  0  0  0  0
    2.8627   46.9509   55.1603 C   0  0  0  0  0  0  0  0  0  0  0  0
    3.6498   46.1964   54.3728 N   0  0  0  0  0  0  0  0  0  0  0  0
    3.5207   43.9936   51.8399 C   0  0  0  0  0  0  0  0  0  0  0  0
    3.6920   42.7645   50.9773 C   0  0  0  0  0  0  0  0  0  0  0  0
    2.3366   43.1086   51.5292 C   0  0  0  0  0  0  0  0  0  0  0  0
    7.2748   46.0036   52.3268 C   0  0  0  0  0  0  0  0  0  0  0  0
    7.4541   47.3845   52.5288 C   0  0  0  0  0  0  0  0  0  0  0  0
    8.7310   47.9404   52.6161 C   0  0  0  0  0  0  0  0  0  0  0  0
    9.8481   47.1228   52.4991 C   0  0  0  0  0  0  0  0  0  0  0  0
    9.6914   45.7487   52.3001 C   0  0  0  0  0  0  0  0  0  0  0  0
    8.4113   45.1761   52.2282 C   0  0  0  0  0  0  0  0  0  0  0  0
    8.2282   43.8339   52.0133 O   0  0  0  0  0  0  0  0  0  0  0  0
    8.5425   43.3459   50.7075 C   0  0  0  0  0  0  0  0  0  0  0  0
    7.2594   42.8991   50.0740 C   0  0  0  0  0  0  0  0  0  0  0  0
    6.5546   43.7614   49.0592 C   0  0  0  0  0  0  0  0  0  0  0  0
    7.2290   42.4893   48.6244 C   0  0  0  0  0  0  0  0  0  0  0  0
    6.1230   44.2116   53.8328 H   0  0  0  0  0  0  0  0  0  0  0  0
    4.1332   43.0472   53.6905 H   0  0  0  0  0  0  0  0  0  0  0  0
    0.3935   44.8161   55.8034 H   0  0  0  0  0  0  0  0  0  0  0  0
    1.0557   47.1437   56.3449 H   0  0  0  0  0  0  0  0  0  0  0  0
    3.1821   47.9798   55.3819 H   0  0  0  0  0  0  0  0  0  0  0  0
    3.7449   45.0644   51.7254 H   0  0  0  0  0  0  0  0  0  0  0  0
    3.8905   42.8719   49.9008 H   0  0  0  0  0  0  0  0  0  0  0  0
    4.3415   41.8773   51.0092 H   0  0  0  0  0  0  0  0  0  0  0  0
    1.5441   43.4674   50.8559 H   0  0  0  0  0  0  0  0  0  0  0  0
    1.5853   42.5767   52.1313 H   0  0  0  0  0  0  0  0  0  0  0  0
    6.5729   48.0366   52.6194 H   0  0  0  0  0  0  0  0  0  0  0  0
    8.8526   49.0218   52.7769 H   0  0  0  0  0  0  0  0  0  0  0  0
   10.8565   47.5575   52.5632 H   0  0  0  0  0  0  0  0  0  0  0  0
   10.5803   45.1087   52.1986 H   0  0  0  0  0  0  0  0  0  0  0  0
    8.9994   44.1463   50.1070 H   0  0  0  0  0  0  0  0  0  0  0  0
    9.2571   42.5116   50.7667 H   0  0  0  0  0  0  0  0  0  0  0  0
    6.9706   42.4296   51.0259 H   0  0  0  0  0  0  0  0  0  0  0  0
    5.4566   43.8284   49.0622 H   0  0  0  0  0  0  0  0  0  0  0  0
    6.6184   44.8175   48.7579 H   0  0  0  0  0  0  0  0  0  0  0  0
    6.6242   41.6261   48.3095 H   0  0  0  0  0  0  0  0  0  0  0  0
    7.9901   42.2302   47.8736 H   0  0  0  0  0  0  0  0  0  0  0  0
  1  2  2  0
  2  3  1  0
  3  4  1  0
  4  5  1  0
  5  6  2  0
  6  7  1  0
  7  8  2  0
  8  9  1  0
  9 10  2  0
  4 11  1  0
 11 12  1  0
 12 13  1  0
  2 14  1  0
 14 15  2  0
 15 16  1  0
 16 17  2  0
 17 18  1  0
 18 19  2  0
 19 20  1  0
 20 21  1  0
 21 22  1  0
 22 23  1  0
 23 24  1  0
 10  5  1  0
 13 11  1  0
 19 14  1  0
 24 22  1  0
  3 25  1  0
  4 26  1  1
  7 27  1  0
  8 28  1  0
  9 29  1  0
 11 30  1  0
 12 31  1  0
 12 32  1  0
 13 33  1  0
 13 34  1  0
 15 35  1  0
 16 36  1  0
 17 37  1  0
 18 38  1  0
 21 39  1  0
 21 40  1  0
 22 41  1  0
 23 42  1  0
 23 43  1  0
 24 44  1  0
 24 45  1  0
M  END
>  <meeko>  (4) 
{"is_sidechain": false}

>  <CID>  (4) 
Z3000762692

>  <pose_index>  (4) 
5

>  <docking_score>  (4) 
-7.209

>  <rmsd_to_best_selected>  (4) 
1.6895668503204626

>  <MWT>  (4) 
323.3959999999996

>  <TPSA>  (4) 
64.11

>  <logP>  (4) 
3.1465000000000023

>  <HBD>  (4) 
1

>  <HBA>  (4) 
4

>  <SMILES>  (4) 
[H]c1nc(C([H])(N([H])C(=O)c2c([H])c([H])c([H])c([H])c2OC([H])([H])C2([H])C([H])([H])C2([H])[H])C2([H])C([H])([H])C2([H])[H])nc([H])c1[H]

$$$$
Z3000762692_pose6
     RDKit          3D

 45 48  0  0  0  0  0  0  0  0999 V2000
    6.7033   44.1600   54.6299 O   0  0  0  0  0  0  0  0  0  0  0  0
    6.6606   44.8476   53.6131 C   0  0  0  0  0  0  0  0  0  0  0  0
    5.5416   44.9319   52.8308 N   0  0  0  0  0  0  0  0  0  0  0  0
    4.3246   44.1748   53.0778 C   0  0  1  0  0  0  0  0  0  0  0  0
    3.2504   45.0426   53.7399 C   0  0  0  0  0  0  0  0  0  0  0  0
    2.8657   46.1760   53.1008 N   0  0  0  0  0  0  0  0  0  0  0  0
    1.9101   46.9090   53.7003 C   0  0  0  0  0  0  0  0  0  0  0  0
    1.3209   46.5617   54.8914 C   0  0  0  0  0  0  0  0  0  0  0  0
    1.7714   45.3939   55.4588 C   0  0  0  0  0  0  0  0  0  0  0  0
    2.7230   44.6182   54.9090 N   0  0  0  0  0  0  0  0  0  0  0  0
    3.8017   43.6636   51.7519 C   0  0  0  0  0  0  0  0  0  0  0  0
    3.7167   42.1811   51.4753 C   0  0  0  0  0  0  0  0  0  0  0  0
    2.4584   42.9805   51.6612 C   0  0  0  0  0  0  0  0  0  0  0  0
    7.8668   45.6400   53.1924 C   0  0  0  0  0  0  0  0  0  0  0  0
    8.7953   45.9436   54.2051 C   0  0  0  0  0  0  0  0  0  0  0  0
    9.9526   46.6695   53.9274 C   0  0  0  0  0  0  0  0  0  0  0  0
   10.1974   47.1081   52.6314 C   0  0  0  0  0  0  0  0  0  0  0  0
    9.2889   46.8147   51.6107 C   0  0  0  0  0  0  0  0  0  0  0  0
    8.1291   46.0690   51.8759 C   0  0  0  0  0  0  0  0  0  0  0  0
    7.2104   45.7857   50.8988 O   0  0  0  0  0  0  0  0  0  0  0  0
    7.6210   44.8727   49.8790 C   0  0  0  0  0  0  0  0  0  0  0  0
    6.5068   43.8929   49.6768 C   0  0  0  0  0  0  0  0  0  0  0  0
    6.2851   43.2357   48.3382 C   0  0  0  0  0  0  0  0  0  0  0  0
    6.8050   42.4267   49.4953 C   0  0  0  0  0  0  0  0  0  0  0  0
    5.5531   45.5073   51.9931 H   0  0  0  0  0  0  0  0  0  0  0  0
    4.5577   43.3426   53.7583 H   0  0  0  0  0  0  0  0  0  0  0  0
    1.5827   47.8374   53.2096 H   0  0  0  0  0  0  0  0  0  0  0  0
    0.5398   47.1780   55.3604 H   0  0  0  0  0  0  0  0  0  0  0  0
    1.3296   45.0762   56.4148 H   0  0  0  0  0  0  0  0  0  0  0  0
    4.2733   44.5244   51.2554 H   0  0  0  0  0  0  0  0  0  0  0  0
    3.9786   41.7918   50.4804 H   0  0  0  0  0  0  0  0  0  0  0  0
    4.1396   41.2784   51.9405 H   0  0  0  0  0  0  0  0  0  0  0  0
    1.7995   43.1758   50.8023 H   0  0  0  0  0  0  0  0  0  0  0  0
    1.5798   42.9043   52.3188 H   0  0  0  0  0  0  0  0  0  0  0  0
    8.6047   45.6025   55.2334 H   0  0  0  0  0  0  0  0  0  0  0  0
   10.6695   46.8942   54.7309 H   0  0  0  0  0  0  0  0  0  0  0  0
   11.1064   47.6863   52.4091 H   0  0  0  0  0  0  0  0  0  0  0  0
    9.4845   47.1717   50.5888 H   0  0  0  0  0  0  0  0  0  0  0  0
    7.8164   45.4176   48.9436 H   0  0  0  0  0  0  0  0  0  0  0  0
    8.5450   44.3534   50.1731 H   0  0  0  0  0  0  0  0  0  0  0  0
    5.8828   44.4850   50.3623 H   0  0  0  0  0  0  0  0  0  0  0  0
    5.2620   43.0721   47.9687 H   0  0  0  0  0  0  0  0  0  0  0  0
    6.6254   43.4305   47.3105 H   0  0  0  0  0  0  0  0  0  0  0  0
    6.1620   41.6718   49.9713 H   0  0  0  0  0  0  0  0  0  0  0  0
    7.6828   41.7854   49.6632 H   0  0  0  0  0  0  0  0  0  0  0  0
  1  2  2  0
  2  3  1  0
  3  4  1  0
  4  5  1  0
  5  6  2  0
  6  7  1  0
  7  8  2  0
  8  9  1  0
  9 10  2  0
  4 11  1  0
 11 12  1  0
 12 13  1  0
  2 14  1  0
 14 15  2  0
 15 16  1  0
 16 17  2  0
 17 18  1  0
 18 19  2  0
 19 20  1  0
 20 21  1  0
 21 22  1  0
 22 23  1  0
 23 24  1  0
 10  5  1  0
 13 11  1  0
 19 14  1  0
 24 22  1  0
  3 25  1  0
  4 26  1  1
  7 27  1  0
  8 28  1  0
  9 29  1  0
 11 30  1  0
 12 31  1  0
 12 32  1  0
 13 33  1  0
 13 34  1  0
 15 35  1  0
 16 36  1  0
 17 37  1  0
 18 38  1  0
 21 39  1  0
 21 40  1  0
 22 41  1  0
 23 42  1  0
 23 43  1  0
 24 44  1  0
 24 45  1  0
M  END
>  <meeko>  (5) 
{"is_sidechain": false}

>  <CID>  (5) 
Z3000762692

>  <pose_index>  (5) 
6

>  <docking_score>  (5) 
-7.188

>  <rmsd_to_best_selected>  (5) 
1.9139971628748667

>  <MWT>  (5) 
323.3959999999996

>  <TPSA>  (5) 
64.11

>  <logP>  (5) 
3.1465000000000023

>  <HBD>  (5) 
1

>  <HBA>  (5) 
4

>  <SMILES>  (5) 
[H]c1nc(C([H])(N([H])C(=O)c2c([H])c([H])c([H])c([H])c2OC([H])([H])C2([H])C([H])([H])C2([H])[H])C2([H])C([H])([H])C2([H])[H])nc([H])c1[H]

$$$$
Z3000762692_pose10
     RDKit          3D

 45 48  0  0  0  0  0  0  0  0999 V2000
    4.8001   43.4102   50.0649 O   0  0  0  0  0  0  0  0  0  0  0  0
    5.5720   43.6302   50.9953 C   0  0  0  0  0  0  0  0  0  0  0  0
    5.1547   44.1599   52.1860 N   0  0  0  0  0  0  0  0  0  0  0  0
    3.7849   44.5751   52.4489 C   0  0  1  0  0  0  0  0  0  0  0  0
    3.0753   43.5966   53.3892 C   0  0  0  0  0  0  0  0  0  0  0  0
    3.5013   42.3091   53.4062 N   0  0  0  0  0  0  0  0  0  0  0  0
    2.8688   41.4771   54.2528 C   0  0  0  0  0  0  0  0  0  0  0  0
    1.8450   41.8704   55.0814 C   0  0  0  0  0  0  0  0  0  0  0  0
    1.4889   43.1951   54.9976 C   0  0  0  0  0  0  0  0  0  0  0  0
    2.0826   44.0745   54.1727 N   0  0  0  0  0  0  0  0  0  0  0  0
    3.8160   45.9463   53.0902 C   0  0  0  0  0  0  0  0  0  0  0  0
    3.7682   47.1962   52.2425 C   0  0  0  0  0  0  0  0  0  0  0  0
    2.5886   46.8256   53.0968 C   0  0  0  0  0  0  0  0  0  0  0  0
    7.0329   43.3123   50.8479 C   0  0  0  0  0  0  0  0  0  0  0  0
    7.4868   42.1555   51.5091 C   0  0  0  0  0  0  0  0  0  0  0  0
    8.8229   41.7624   51.4383 C   0  0  0  0  0  0  0  0  0  0  0  0
    9.7282   42.5235   50.7076 C   0  0  0  0  0  0  0  0  0  0  0  0
    9.2962   43.6738   50.0416 C   0  0  0  0  0  0  0  0  0  0  0  0
    7.9503   44.0695   50.0921 C   0  0  0  0  0  0  0  0  0  0  0  0
    7.5038   45.2052   49.4669 O   0  0  0  0  0  0  0  0  0  0  0  0
    8.0721   46.4415   49.9025 C   0  0  0  0  0  0  0  0  0  0  0  0
    7.1021   47.0704   50.8568 C   0  0  0  0  0  0  0  0  0  0  0  0
    7.4198   47.1787   52.3260 C   0  0  0  0  0  0  0  0  0  0  0  0
    7.4002   48.4148   51.4685 C   0  0  0  0  0  0  0  0  0  0  0  0
    5.8289   44.3330   52.9252 H   0  0  0  0  0  0  0  0  0  0  0  0
    3.2319   44.5957   51.4982 H   0  0  0  0  0  0  0  0  0  0  0  0
    3.1880   40.4249   54.2837 H   0  0  0  0  0  0  0  0  0  0  0  0
    1.3438   41.1709   55.7665 H   0  0  0  0  0  0  0  0  0  0  0  0
    0.6728   43.5555   55.6411 H   0  0  0  0  0  0  0  0  0  0  0  0
    4.4952   45.5508   53.8598 H   0  0  0  0  0  0  0  0  0  0  0  0
    4.3883   48.0649   52.5086 H   0  0  0  0  0  0  0  0  0  0  0  0
    3.9157   47.4173   51.1750 H   0  0  0  0  0  0  0  0  0  0  0  0
    2.3459   47.4235   53.9876 H   0  0  0  0  0  0  0  0  0  0  0  0
    1.5164   46.6637   52.9123 H   0  0  0  0  0  0  0  0  0  0  0  0
    6.7756   41.5514   52.0915 H   0  0  0  0  0  0  0  0  0  0  0  0
    9.1593   40.8536   51.9587 H   0  0  0  0  0  0  0  0  0  0  0  0
   10.7842   42.2204   50.6537 H   0  0  0  0  0  0  0  0  0  0  0  0
   10.0190   44.2758   49.4714 H   0  0  0  0  0  0  0  0  0  0  0  0
    9.0310   46.2566   50.4088 H   0  0  0  0  0  0  0  0  0  0  0  0
    8.2594   47.1056   49.0458 H   0  0  0  0  0  0  0  0  0  0  0  0
    6.2736   46.6432   50.2728 H   0  0  0  0  0  0  0  0  0  0  0  0
    6.6292   47.0151   53.0731 H   0  0  0  0  0  0  0  0  0  0  0  0
    8.1532   46.7110   52.9994 H   0  0  0  0  0  0  0  0  0  0  0  0
    6.5953   49.1548   51.5889 H   0  0  0  0  0  0  0  0  0  0  0  0
    8.1134   49.2248   51.2558 H   0  0  0  0  0  0  0  0  0  0  0  0
  1  2  2  0
  2  3  1  0
  3  4  1  0
  4  5  1  0
  5  6  2  0
  6  7  1  0
  7  8  2  0
  8  9  1  0
  9 10  2  0
  4 11  1  0
 11 12  1  0
 12 13  1  0
  2 14  1  0
 14 15  2  0
 15 16  1  0
 16 17  2  0
 17 18  1  0
 18 19  2  0
 19 20  1  0
 20 21  1  0
 21 22  1  0
 22 23  1  0
 23 24  1  0
 10  5  1  0
 13 11  1  0
 19 14  1  0
 24 22  1  0
  3 25  1  0
  4 26  1  6
  7 27  1  0
  8 28  1  0
  9 29  1  0
 11 30  1  0
 12 31  1  0
 12 32  1  0
 13 33  1  0
 13 34  1  0
 15 35  1  0
 16 36  1  0
 17 37  1  0
 18 38  1  0
 21 39  1  0
 21 40  1  0
 22 41  1  0
 23 42  1  0
 23 43  1  0
 24 44  1  0
 24 45  1  0
M  END
>  <meeko>  (6) 
{"is_sidechain": false}

>  <CID>  (6) 
Z3000762692

>  <pose_index>  (6) 
10

>  <docking_score>  (6) 
-6.853

>  <rmsd_to_best_selected>  (6) 
1.584799113800524

>  <MWT>  (6) 
323.3959999999996

>  <TPSA>  (6) 
64.11

>  <logP>  (6) 
3.1465000000000023

>  <HBD>  (6) 
1

>  <HBA>  (6) 
4

>  <SMILES>  (6) 
[H]c1nc(C([H])(N([H])C(=O)c2c([H])c([H])c([H])c([H])c2OC([H])([H])C2([H])C([H])([H])C2([H])[H])C2([H])C([H])([H])C2([H])[H])nc([H])c1[H]

$$$$
