Z3006954377_pose4
     RDKit          3D

 40 42  0  0  0  0  0  0  0  0999 V2000
    0.8779   45.2426   56.5371 C   0  0  0  0  0  0  0  0  0  0  0  0
    2.0238   44.5380   55.9088 C   0  0  0  0  0  0  0  0  0  0  0  0
    2.6274   43.5362   56.5602 N   0  0  0  0  0  0  0  0  0  0  0  0
    3.5963   43.1419   55.7191 N   0  0  0  0  0  0  0  0  0  0  0  0
    3.6308   43.8539   54.5488 C   0  0  0  0  0  0  0  0  0  0  0  0
    4.5378   43.6226   53.5342 N   0  0  0  0  0  0  0  0  0  0  0  0
    5.7195   44.3385   53.4300 C   0  0  0  0  0  0  0  0  0  0  0  0
    6.0637   45.2311   54.1996 O   0  0  0  0  0  0  0  0  0  0  0  0
    6.5762   43.9824   52.2689 C   0  0  0  0  0  0  0  0  0  0  0  0
    7.0351   42.6700   52.0894 C   0  0  0  0  0  0  0  0  0  0  0  0
    6.5657   41.3534   53.1088 Cl  0  0  0  0  0  0  0  0  0  0  0  0
    7.8673   42.3583   51.0037 C   0  0  0  0  0  0  0  0  0  0  0  0
    8.2413   43.3436   50.0912 C   0  0  0  0  0  0  0  0  0  0  0  0
    7.7811   44.6461   50.2530 C   0  0  0  0  0  0  0  0  0  0  0  0
    6.9696   44.9686   51.3473 C   0  0  0  0  0  0  0  0  0  0  0  0
    6.5043   46.2540   51.4563 O   0  0  0  0  0  0  0  0  0  0  0  0
    7.3719   47.2010   50.8129 C   0  0  0  0  0  0  0  0  0  0  0  0
    8.4563   47.5889   51.7718 C   0  0  0  0  0  0  0  0  0  0  0  0
    9.0937   48.9538   51.7022 C   0  0  0  0  0  0  0  0  0  0  0  0
    9.8845   47.7362   51.3098 C   0  0  0  0  0  0  0  0  0  0  0  0
    2.6210   44.7891   54.6396 C   0  0  0  0  0  0  0  0  0  0  0  0
    2.2493   45.8213   53.6442 C   0  0  0  0  0  0  0  0  0  0  0  0
    1.2346   45.8288   57.3968 H   0  0  0  0  0  0  0  0  0  0  0  0
    0.4135   45.9160   55.8016 H   0  0  0  0  0  0  0  0  0  0  0  0
    0.1365   44.5051   56.8784 H   0  0  0  0  0  0  0  0  0  0  0  0
    4.2225   42.3851   55.9843 H   0  0  0  0  0  0  0  0  0  0  0  0
    4.2747   42.9874   52.7891 H   0  0  0  0  0  0  0  0  0  0  0  0
    8.2278   41.3275   50.8715 H   0  0  0  0  0  0  0  0  0  0  0  0
    8.8984   43.0917   49.2457 H   0  0  0  0  0  0  0  0  0  0  0  0
    8.0542   45.4217   49.5224 H   0  0  0  0  0  0  0  0  0  0  0  0
    7.8166   46.7454   49.9159 H   0  0  0  0  0  0  0  0  0  0  0  0
    6.7990   48.0917   50.5153 H   0  0  0  0  0  0  0  0  0  0  0  0
    7.9481   47.0038   52.5524 H   0  0  0  0  0  0  0  0  0  0  0  0
    8.7725   49.6719   50.9334 H   0  0  0  0  0  0  0  0  0  0  0  0
    9.2406   49.7801   52.4132 H   0  0  0  0  0  0  0  0  0  0  0  0
   10.1413   47.5641   50.2542 H   0  0  0  0  0  0  0  0  0  0  0  0
   10.8487   47.3039   51.6153 H   0  0  0  0  0  0  0  0  0  0  0  0
    2.2564   46.8117   54.1228 H   0  0  0  0  0  0  0  0  0  0  0  0
    2.9729   45.8092   52.8158 H   0  0  0  0  0  0  0  0  0  0  0  0
    1.2426   45.6095   53.2548 H   0  0  0  0  0  0  0  0  0  0  0  0
  1  2  1  0
  2  3  2  0
  3  4  1  0
  4  5  1  0
  5  6  1  0
  6  7  1  0
  7  8  2  0
  7  9  1  0
  9 10  2  0
 10 11  1  0
 10 12  1  0
 12 13  2  0
 13 14  1  0
 14 15  2  0
 15 16  1  0
 16 17  1  0
 17 18  1  0
 18 19  1  0
 19 20  1  0
  5 21  2  0
 21 22  1  0
 21  2  1  0
 15  9  1  0
 20 18  1  0
  1 23  1  0
  1 24  1  0
  1 25  1  0
  4 26  1  0
  6 27  1  0
 12 28  1  0
 13 29  1  0
 14 30  1  0
 17 31  1  0
 17 32  1  0
 18 33  1  0
 19 34  1  0
 19 35  1  0
 20 36  1  0
 20 37  1  0
 22 38  1  0
 22 39  1  0
 22 40  1  0
M  END
>  <meeko>  (1) 
{"is_sidechain": false}

>  <CID>  (1) 
Z3006954377

>  <pose_index>  (1) 
4

>  <docking_score>  (1) 
-8.297

>  <rmsd_to_best_selected>  (1) 
1.5086648681347725

>  <MWT>  (1) 
319.7919999999997

>  <TPSA>  (1) 
67.01

>  <logP>  (1) 
3.721040000000003

>  <HBD>  (1) 
2

>  <HBA>  (1) 
3

>  <SMILES>  (1) 
[H]c1c([H])c(Cl)c(C(=O)N([H])c2c(C([H])([H])[H])c(C([H])([H])[H])nn2[H])c(OC([H])([H])C2([H])C([H])([H])C2([H])[H])c1[H]

$$$$
Z3006954377_pose1
     RDKit          3D

 40 42  0  0  0  0  0  0  0  0999 V2000
    1.2130   45.4700   56.2920 C   0  0  0  0  0  0  0  0  0  0  0  0
    1.9560   44.8680   55.1560 C   0  0  0  0  0  0  0  0  0  0  0  0
    1.3760   43.9190   54.4100 N   0  0  0  0  0  0  0  0  0  0  0  0
    2.3130   43.6090   53.4990 N   0  0  0  0  0  0  0  0  0  0  0  0
    3.4710   44.3290   53.6340 C   0  0  0  0  0  0  0  0  0  0  0  0
    4.5680   44.1840   52.8100 N   0  0  0  0  0  0  0  0  0  0  0  0
    4.5310   44.5340   51.4700 C   0  0  0  0  0  0  0  0  0  0  0  0
    3.5430   44.9840   50.8950 O   0  0  0  0  0  0  0  0  0  0  0  0
    5.7890   44.2960   50.7160 C   0  0  0  0  0  0  0  0  0  0  0  0
    5.9890   43.1020   50.0100 C   0  0  0  0  0  0  0  0  0  0  0  0
    4.7780   41.8770   49.8560 Cl  0  0  0  0  0  0  0  0  0  0  0  0
    7.1940   42.8810   49.3280 C   0  0  0  0  0  0  0  0  0  0  0  0
    8.2030   43.8460   49.3400 C   0  0  0  0  0  0  0  0  0  0  0  0
    8.0090   45.0390   50.0280 C   0  0  0  0  0  0  0  0  0  0  0  0
    6.8170   45.2550   50.7290 C   0  0  0  0  0  0  0  0  0  0  0  0
    6.6450   46.4580   51.3650 O   0  0  0  0  0  0  0  0  0  0  0  0
    7.2790   46.4840   52.6550 C   0  0  0  0  0  0  0  0  0  0  0  0
    8.4520   47.4130   52.5960 C   0  0  0  0  0  0  0  0  0  0  0  0
    9.8610   46.8770   52.5980 C   0  0  0  0  0  0  0  0  0  0  0  0
    9.3390   47.6190   53.7980 C   0  0  0  0  0  0  0  0  0  0  0  0
    3.2810   45.1590   54.7200 C   0  0  0  0  0  0  0  0  0  0  0  0
    4.2410   46.1260   55.3000 C   0  0  0  0  0  0  0  0  0  0  0  0
    1.6460   45.1192   57.2404 H   0  0  0  0  0  0  0  0  0  0  0  0
    1.2867   46.5662   56.2386 H   0  0  0  0  0  0  0  0  0  0  0  0
    0.1559   45.1706   56.2386 H   0  0  0  0  0  0  0  0  0  0  0  0
    2.1270   42.8910   52.8030 H   0  0  0  0  0  0  0  0  0  0  0  0
    5.3850   43.7080   53.1770 H   0  0  0  0  0  0  0  0  0  0  0  0
    7.3456   41.9399   48.7791 H   0  0  0  0  0  0  0  0  0  0  0  0
    9.1479   43.6634   48.8073 H   0  0  0  0  0  0  0  0  0  0  0  0
    8.7916   45.8120   50.0212 H   0  0  0  0  0  0  0  0  0  0  0  0
    6.5638   46.8388   53.4117 H   0  0  0  0  0  0  0  0  0  0  0  0
    7.6157   45.4728   52.9271 H   0  0  0  0  0  0  0  0  0  0  0  0
    7.8699   48.0736   51.9366 H   0  0  0  0  0  0  0  0  0  0  0  0
   10.0366   45.7926   52.6557 H   0  0  0  0  0  0  0  0  0  0  0  0
   10.7341   46.9836   51.9375 H   0  0  0  0  0  0  0  0  0  0  0  0
    9.1329   47.0770   54.7328 H   0  0  0  0  0  0  0  0  0  0  0  0
    9.6724   48.4924   54.3776 H   0  0  0  0  0  0  0  0  0  0  0  0
    4.1925   46.0772   56.3978 H   0  0  0  0  0  0  0  0  0  0  0  0
    5.2592   45.8768   54.9665 H   0  0  0  0  0  0  0  0  0  0  0  0
    3.9844   47.1423   54.9665 H   0  0  0  0  0  0  0  0  0  0  0  0
  1  2  1  0
  2  3  2  0
  3  4  1  0
  4  5  1  0
  5  6  1  0
  6  7  1  0
  7  8  2  0
  7  9  1  0
  9 10  2  0
 10 11  1  0
 10 12  1  0
 12 13  2  0
 13 14  1  0
 14 15  2  0
 15 16  1  0
 16 17  1  0
 17 18  1  0
 18 19  1  0
 19 20  1  0
  5 21  2  0
 21 22  1  0
 21  2  1  0
 15  9  1  0
 20 18  1  0
  1 23  1  0
  1 24  1  0
  1 25  1  0
  4 26  1  0
  6 27  1  0
 12 28  1  0
 13 29  1  0
 14 30  1  0
 17 31  1  0
 17 32  1  0
 18 33  1  0
 19 34  1  0
 19 35  1  0
 20 36  1  0
 20 37  1  0
 22 38  1  0
 22 39  1  0
 22 40  1  0
M  END
>  <meeko>  (2) 
{"is_sidechain": false}

>  <CID>  (2) 
Z3006954377

>  <pose_index>  (2) 
1

>  <docking_score>  (2) 
-8.779

>  <rmsd_to_best_selected>  (2) 
0.0

>  <MWT>  (2) 
319.7919999999997

>  <TPSA>  (2) 
67.01

>  <logP>  (2) 
3.721040000000003

>  <HBD>  (2) 
2

>  <HBA>  (2) 
3

>  <SMILES>  (2) 
[H]c1c([H])c(Cl)c(C(=O)N([H])c2c(C([H])([H])[H])c(C([H])([H])[H])nn2[H])c(OC([H])([H])C2([H])C([H])([H])C2([H])[H])c1[H]

$$$$
Z3006954377_pose5
     RDKit          3D

 40 42  0  0  0  0  0  0  0  0999 V2000
    1.4473   45.7613   56.3036 C   0  0  0  0  0  0  0  0  0  0  0  0
    2.4972   44.9879   55.5941 C   0  0  0  0  0  0  0  0  0  0  0  0
    2.8987   43.8072   56.0815 N   0  0  0  0  0  0  0  0  0  0  0  0
    3.8354   43.4003   55.2105 N   0  0  0  0  0  0  0  0  0  0  0  0
    4.0451   44.2770   54.1791 C   0  0  0  0  0  0  0  0  0  0  0  0
    4.9553   44.0679   53.1628 N   0  0  0  0  0  0  0  0  0  0  0  0
    6.2549   43.6593   53.4157 C   0  0  0  0  0  0  0  0  0  0  0  0
    6.7178   43.4612   54.5365 O   0  0  0  0  0  0  0  0  0  0  0  0
    7.1144   43.4999   52.2141 C   0  0  0  0  0  0  0  0  0  0  0  0
    6.9398   42.4127   51.3457 C   0  0  0  0  0  0  0  0  0  0  0  0
    5.6698   41.2518   51.5209 Cl  0  0  0  0  0  0  0  0  0  0  0  0
    7.7799   42.2605   50.2323 C   0  0  0  0  0  0  0  0  0  0  0  0
    8.7888   43.1880   49.9728 C   0  0  0  0  0  0  0  0  0  0  0  0
    8.9619   44.2763   50.8217 C   0  0  0  0  0  0  0  0  0  0  0  0
    8.1427   44.4213   51.9470 C   0  0  0  0  0  0  0  0  0  0  0  0
    8.3162   45.5248   52.7417 O   0  0  0  0  0  0  0  0  0  0  0  0
    8.6311   46.6994   51.9762 C   0  0  0  0  0  0  0  0  0  0  0  0
    7.6235   47.7634   52.2893 C   0  0  0  0  0  0  0  0  0  0  0  0
    6.1539   47.5301   52.0410 C   0  0  0  0  0  0  0  0  0  0  0  0
    6.9139   48.5081   51.1872 C   0  0  0  0  0  0  0  0  0  0  0  0
    3.1933   45.3399   54.4003 C   0  0  0  0  0  0  0  0  0  0  0  0
    3.0438   46.5671   53.5858 C   0  0  0  0  0  0  0  0  0  0  0  0
    1.3537   45.3914   57.3353 H   0  0  0  0  0  0  0  0  0  0  0  0
    1.7237   46.8259   56.3194 H   0  0  0  0  0  0  0  0  0  0  0  0
    0.4866   45.6396   55.7818 H   0  0  0  0  0  0  0  0  0  0  0  0
    4.3188   42.5176   55.3593 H   0  0  0  0  0  0  0  0  0  0  0  0
    4.6894   44.3248   52.2181 H   0  0  0  0  0  0  0  0  0  0  0  0
    7.6416   41.4023   49.5582 H   0  0  0  0  0  0  0  0  0  0  0  0
    9.4455   43.0593   49.0997 H   0  0  0  0  0  0  0  0  0  0  0  0
    9.7419   45.0221   50.6087 H   0  0  0  0  0  0  0  0  0  0  0  0
    9.6380   47.0543   52.2408 H   0  0  0  0  0  0  0  0  0  0  0  0
    8.6049   46.4640   50.9020 H   0  0  0  0  0  0  0  0  0  0  0  0
    8.2314   48.0550   53.1585 H   0  0  0  0  0  0  0  0  0  0  0  0
    5.8132   46.5757   51.6132 H   0  0  0  0  0  0  0  0  0  0  0  0
    5.2439   47.5791   52.6570 H   0  0  0  0  0  0  0  0  0  0  0  0
    7.1285   48.2686   50.1353 H   0  0  0  0  0  0  0  0  0  0  0  0
    6.7890   49.5680   50.9209 H   0  0  0  0  0  0  0  0  0  0  0  0
    3.1758   47.4511   54.2270 H   0  0  0  0  0  0  0  0  0  0  0  0
    3.8037   46.5742   52.7905 H   0  0  0  0  0  0  0  0  0  0  0  0
    2.0408   46.5878   53.1347 H   0  0  0  0  0  0  0  0  0  0  0  0
  1  2  1  0
  2  3  2  0
  3  4  1  0
  4  5  1  0
  5  6  1  0
  6  7  1  0
  7  8  2  0
  7  9  1  0
  9 10  2  0
 10 11  1  0
 10 12  1  0
 12 13  2  0
 13 14  1  0
 14 15  2  0
 15 16  1  0
 16 17  1  0
 17 18  1  0
 18 19  1  0
 19 20  1  0
  5 21  2  0
 21 22  1  0
 21  2  1  0
 15  9  1  0
 20 18  1  0
  1 23  1  0
  1 24  1  0
  1 25  1  0
  4 26  1  0
  6 27  1  0
 12 28  1  0
 13 29  1  0
 14 30  1  0
 17 31  1  0
 17 32  1  0
 18 33  1  0
 19 34  1  0
 19 35  1  0
 20 36  1  0
 20 37  1  0
 22 38  1  0
 22 39  1  0
 22 40  1  0
M  END
>  <meeko>  (3) 
{"is_sidechain": false}

>  <CID>  (3) 
Z3006954377

>  <pose_index>  (3) 
5

>  <docking_score>  (3) 
-8.171

>  <rmsd_to_best_selected>  (3) 
1.9056279418093396

>  <MWT>  (3) 
319.7919999999997

>  <TPSA>  (3) 
67.01

>  <logP>  (3) 
3.721040000000003

>  <HBD>  (3) 
2

>  <HBA>  (3) 
3

>  <SMILES>  (3) 
[H]c1c([H])c(Cl)c(C(=O)N([H])c2c(C([H])([H])[H])c(C([H])([H])[H])nn2[H])c(OC([H])([H])C2([H])C([H])([H])C2([H])[H])c1[H]

$$$$
Z3006954377_pose6
     RDKit          3D

 40 42  0  0  0  0  0  0  0  0999 V2000
    1.2801   45.8451   56.0512 C   0  0  0  0  0  0  0  0  0  0  0  0
    2.3611   45.0774   55.3819 C   0  0  0  0  0  0  0  0  0  0  0  0
    2.3955   43.7440   55.4909 N   0  0  0  0  0  0  0  0  0  0  0  0
    3.4803   43.3908   54.7820 N   0  0  0  0  0  0  0  0  0  0  0  0
    4.1388   44.4518   54.2193 C   0  0  0  0  0  0  0  0  0  0  0  0
    5.2749   44.3311   53.4455 N   0  0  0  0  0  0  0  0  0  0  0  0
    5.4940   43.2308   52.6323 C   0  0  0  0  0  0  0  0  0  0  0  0
    4.7284   42.2755   52.5303 O   0  0  0  0  0  0  0  0  0  0  0  0
    6.7757   43.2433   51.8798 C   0  0  0  0  0  0  0  0  0  0  0  0
    7.7664   42.2840   52.1322 C   0  0  0  0  0  0  0  0  0  0  0  0
    7.5515   40.9639   53.2289 Cl  0  0  0  0  0  0  0  0  0  0  0  0
    8.9823   42.3292   51.4340 C   0  0  0  0  0  0  0  0  0  0  0  0
    9.2162   43.3188   50.4797 C   0  0  0  0  0  0  0  0  0  0  0  0
    8.2343   44.2680   50.2128 C   0  0  0  0  0  0  0  0  0  0  0  0
    7.0288   44.2430   50.9236 C   0  0  0  0  0  0  0  0  0  0  0  0
    6.0691   45.1695   50.6093 O   0  0  0  0  0  0  0  0  0  0  0  0
    6.6121   46.4955   50.4972 C   0  0  0  0  0  0  0  0  0  0  0  0
    6.6914   47.1012   51.8652 C   0  0  0  0  0  0  0  0  0  0  0  0
    7.0629   48.5518   52.0456 C   0  0  0  0  0  0  0  0  0  0  0  0
    8.0202   47.4729   52.4730 C   0  0  0  0  0  0  0  0  0  0  0  0
    3.4422   45.5810   54.5998 C   0  0  0  0  0  0  0  0  0  0  0  0
    3.7529   46.9914   54.2737 C   0  0  0  0  0  0  0  0  0  0  0  0
    1.6853   46.7951   56.4297 H   0  0  0  0  0  0  0  0  0  0  0  0
    0.4758   46.0511   55.3295 H   0  0  0  0  0  0  0  0  0  0  0  0
    0.8784   45.2576   56.8900 H   0  0  0  0  0  0  0  0  0  0  0  0
    3.7444   42.4110   54.7129 H   0  0  0  0  0  0  0  0  0  0  0  0
    6.0123   45.0174   53.5634 H   0  0  0  0  0  0  0  0  0  0  0  0
    9.7582   41.5775   51.6412 H   0  0  0  0  0  0  0  0  0  0  0  0
   10.1739   43.3488   49.9395 H   0  0  0  0  0  0  0  0  0  0  0  0
    8.4051   45.0366   49.4446 H   0  0  0  0  0  0  0  0  0  0  0  0
    7.6182   46.4470   50.0553 H   0  0  0  0  0  0  0  0  0  0  0  0
    5.9669   47.1106   49.8527 H   0  0  0  0  0  0  0  0  0  0  0  0
    5.8458   46.4683   52.1725 H   0  0  0  0  0  0  0  0  0  0  0  0
    7.2919   49.1740   51.1678 H   0  0  0  0  0  0  0  0  0  0  0  0
    6.5973   49.4180   52.5384 H   0  0  0  0  0  0  0  0  0  0  0  0
    8.9491   47.3067   51.9077 H   0  0  0  0  0  0  0  0  0  0  0  0
    8.5441   47.2244   53.4077 H   0  0  0  0  0  0  0  0  0  0  0  0
    4.7753   47.2274   54.6037 H   0  0  0  0  0  0  0  0  0  0  0  0
    3.6742   47.1424   53.1870 H   0  0  0  0  0  0  0  0  0  0  0  0
    3.0398   47.6524   54.7883 H   0  0  0  0  0  0  0  0  0  0  0  0
  1  2  1  0
  2  3  2  0
  3  4  1  0
  4  5  1  0
  5  6  1  0
  6  7  1  0
  7  8  2  0
  7  9  1  0
  9 10  2  0
 10 11  1  0
 10 12  1  0
 12 13  2  0
 13 14  1  0
 14 15  2  0
 15 16  1  0
 16 17  1  0
 17 18  1  0
 18 19  1  0
 19 20  1  0
  5 21  2  0
 21 22  1  0
 21  2  1  0
 15  9  1  0
 20 18  1  0
  1 23  1  0
  1 24  1  0
  1 25  1  0
  4 26  1  0
  6 27  1  0
 12 28  1  0
 13 29  1  0
 14 30  1  0
 17 31  1  0
 17 32  1  0
 18 33  1  0
 19 34  1  0
 19 35  1  0
 20 36  1  0
 20 37  1  0
 22 38  1  0
 22 39  1  0
 22 40  1  0
M  END
>  <meeko>  (4) 
{"is_sidechain": false}

>  <CID>  (4) 
Z3006954377

>  <pose_index>  (4) 
6

>  <docking_score>  (4) 
-8.111

>  <rmsd_to_best_selected>  (4) 
1.0106369697401345

>  <MWT>  (4) 
319.7919999999997

>  <TPSA>  (4) 
67.01

>  <logP>  (4) 
3.721040000000003

>  <HBD>  (4) 
2

>  <HBA>  (4) 
3

>  <SMILES>  (4) 
[H]c1c([H])c(Cl)c(C(=O)N([H])c2c(C([H])([H])[H])c(C([H])([H])[H])nn2[H])c(OC([H])([H])C2([H])C([H])([H])C2([H])[H])c1[H]

$$$$
Z3006954377_pose8
     RDKit          3D

 40 42  0  0  0  0  0  0  0  0999 V2000
    1.4842   46.2951   55.9371 C   0  0  0  0  0  0  0  0  0  0  0  0
    2.5495   45.4134   55.3965 C   0  0  0  0  0  0  0  0  0  0  0  0
    2.9451   44.3426   56.0958 N   0  0  0  0  0  0  0  0  0  0  0  0
    3.8995   43.7910   55.3285 N   0  0  0  0  0  0  0  0  0  0  0  0
    4.1259   44.4699   54.1603 C   0  0  0  0  0  0  0  0  0  0  0  0
    5.0552   44.0865   53.2156 N   0  0  0  0  0  0  0  0  0  0  0  0
    6.3759   43.8290   53.5479 C   0  0  0  0  0  0  0  0  0  0  0  0
    6.8406   43.9243   54.6801 O   0  0  0  0  0  0  0  0  0  0  0  0
    7.2532   43.4472   52.4106 C   0  0  0  0  0  0  0  0  0  0  0  0
    8.1162   42.3467   52.5075 C   0  0  0  0  0  0  0  0  0  0  0  0
    8.1568   41.2896   53.8752 Cl  0  0  0  0  0  0  0  0  0  0  0  0
    8.9597   42.0184   51.4358 C   0  0  0  0  0  0  0  0  0  0  0  0
    8.9450   42.7755   50.2637 C   0  0  0  0  0  0  0  0  0  0  0  0
    8.0826   43.8614   50.1538 C   0  0  0  0  0  0  0  0  0  0  0  0
    7.2558   44.2083   51.2287 C   0  0  0  0  0  0  0  0  0  0  0  0
    6.3924   45.2618   51.0717 O   0  0  0  0  0  0  0  0  0  0  0  0
    7.0471   46.4239   50.5384 C   0  0  0  0  0  0  0  0  0  0  0  0
    7.5909   47.2353   51.6752 C   0  0  0  0  0  0  0  0  0  0  0  0
    6.8216   47.3661   52.9651 C   0  0  0  0  0  0  0  0  0  0  0  0
    6.9669   48.5545   52.0545 C   0  0  0  0  0  0  0  0  0  0  0  0
    3.2667   45.5491   54.1724 C   0  0  0  0  0  0  0  0  0  0  0  0
    3.1293   46.6101   53.1480 C   0  0  0  0  0  0  0  0  0  0  0  0
    1.9166   47.2701   56.2063 H   0  0  0  0  0  0  0  0  0  0  0  0
    0.7043   46.4379   55.1745 H   0  0  0  0  0  0  0  0  0  0  0  0
    1.0423   45.8306   56.8309 H   0  0  0  0  0  0  0  0  0  0  0  0
    4.3810   42.9520   55.6424 H   0  0  0  0  0  0  0  0  0  0  0  0
    4.7823   44.1005   52.2388 H   0  0  0  0  0  0  0  0  0  0  0  0
    9.6384   41.1569   51.5200 H   0  0  0  0  0  0  0  0  0  0  0  0
    9.6130   42.5145   49.4296 H   0  0  0  0  0  0  0  0  0  0  0  0
    8.0505   44.4469   49.2231 H   0  0  0  0  0  0  0  0  0  0  0  0
    7.8704   46.1142   49.8779 H   0  0  0  0  0  0  0  0  0  0  0  0
    6.3301   47.0246   49.9595 H   0  0  0  0  0  0  0  0  0  0  0  0
    8.6036   46.9046   51.4008 H   0  0  0  0  0  0  0  0  0  0  0  0
    5.8440   46.8737   53.0746 H   0  0  0  0  0  0  0  0  0  0  0  0
    7.0407   47.1672   54.0246 H   0  0  0  0  0  0  0  0  0  0  0  0
    6.0957   48.9307   51.4983 H   0  0  0  0  0  0  0  0  0  0  0  0
    7.3364   49.5838   52.1727 H   0  0  0  0  0  0  0  0  0  0  0  0
    3.2397   47.5957   53.6238 H   0  0  0  0  0  0  0  0  0  0  0  0
    3.9085   46.4833   52.3820 H   0  0  0  0  0  0  0  0  0  0  0  0
    2.1375   46.5392   52.6774 H   0  0  0  0  0  0  0  0  0  0  0  0
  1  2  1  0
  2  3  2  0
  3  4  1  0
  4  5  1  0
  5  6  1  0
  6  7  1  0
  7  8  2  0
  7  9  1  0
  9 10  2  0
 10 11  1  0
 10 12  1  0
 12 13  2  0
 13 14  1  0
 14 15  2  0
 15 16  1  0
 16 17  1  0
 17 18  1  0
 18 19  1  0
 19 20  1  0
  5 21  2  0
 21 22  1  0
 21  2  1  0
 15  9  1  0
 20 18  1  0
  1 23  1  0
  1 24  1  0
  1 25  1  0
  4 26  1  0
  6 27  1  0
 12 28  1  0
 13 29  1  0
 14 30  1  0
 17 31  1  0
 17 32  1  0
 18 33  1  0
 19 34  1  0
 19 35  1  0
 20 36  1  0
 20 37  1  0
 22 38  1  0
 22 39  1  0
 22 40  1  0
M  END
>  <meeko>  (5) 
{"is_sidechain": false}

>  <CID>  (5) 
Z3006954377

>  <pose_index>  (5) 
8

>  <docking_score>  (5) 
-7.708

>  <rmsd_to_best_selected>  (5) 
1.6750296930084951

>  <MWT>  (5) 
319.7919999999997

>  <TPSA>  (5) 
67.01

>  <logP>  (5) 
3.721040000000003

>  <HBD>  (5) 
2

>  <HBA>  (5) 
3

>  <SMILES>  (5) 
[H]c1c([H])c(Cl)c(C(=O)N([H])c2c(C([H])([H])[H])c(C([H])([H])[H])nn2[H])c(OC([H])([H])C2([H])C([H])([H])C2([H])[H])c1[H]

$$$$
Z3006954377_pose10
     RDKit          3D

 40 42  0  0  0  0  0  0  0  0999 V2000
    1.6050   46.3951   55.7559 C   0  0  0  0  0  0  0  0  0  0  0  0
    2.9081   45.7399   55.4755 C   0  0  0  0  0  0  0  0  0  0  0  0
    3.5963   45.1735   56.4749 N   0  0  0  0  0  0  0  0  0  0  0  0
    4.6968   44.6929   55.8758 N   0  0  0  0  0  0  0  0  0  0  0  0
    4.7358   44.9272   54.5267 C   0  0  0  0  0  0  0  0  0  0  0  0
    5.7661   44.5215   53.7033 N   0  0  0  0  0  0  0  0  0  0  0  0
    5.6025   43.5183   52.7621 C   0  0  0  0  0  0  0  0  0  0  0  0
    4.5564   42.8985   52.5791 O   0  0  0  0  0  0  0  0  0  0  0  0
    6.8155   43.1857   51.9700 C   0  0  0  0  0  0  0  0  0  0  0  0
    7.6078   42.0783   52.3029 C   0  0  0  0  0  0  0  0  0  0  0  0
    7.1983   40.9598   53.5556 Cl  0  0  0  0  0  0  0  0  0  0  0  0
    8.7657   41.7963   51.5627 C   0  0  0  0  0  0  0  0  0  0  0  0
    9.1375   42.6062   50.4898 C   0  0  0  0  0  0  0  0  0  0  0  0
    8.3495   43.7000   50.1444 C   0  0  0  0  0  0  0  0  0  0  0  0
    7.2062   44.0000   50.8929 C   0  0  0  0  0  0  0  0  0  0  0  0
    6.4328   45.0634   50.5031 O   0  0  0  0  0  0  0  0  0  0  0  0
    7.0682   46.3231   50.7752 C   0  0  0  0  0  0  0  0  0  0  0  0
    6.3289   47.0064   51.8848 C   0  0  0  0  0  0  0  0  0  0  0  0
    6.2517   48.5109   51.9482 C   0  0  0  0  0  0  0  0  0  0  0  0
    7.0687   47.7579   52.9626 C   0  0  0  0  0  0  0  0  0  0  0  0
    3.5833   45.6247   54.2257 C   0  0  0  0  0  0  0  0  0  0  0  0
    3.1531   46.1385   52.9059 C   0  0  0  0  0  0  0  0  0  0  0  0
    1.7322   47.4876   55.7368 H   0  0  0  0  0  0  0  0  0  0  0  0
    0.8729   46.0978   54.9906 H   0  0  0  0  0  0  0  0  0  0  0  0
    1.2447   46.0852   56.7480 H   0  0  0  0  0  0  0  0  0  0  0  0
    5.4065   44.2146   56.4252 H   0  0  0  0  0  0  0  0  0  0  0  0
    6.6928   44.8977   53.8716 H   0  0  0  0  0  0  0  0  0  0  0  0
    9.3861   40.9284   51.8309 H   0  0  0  0  0  0  0  0  0  0  0  0
   10.0503   42.3812   49.9188 H   0  0  0  0  0  0  0  0  0  0  0  0
    8.6252   44.3277   49.2841 H   0  0  0  0  0  0  0  0  0  0  0  0
    8.1125   46.1532   51.0763 H   0  0  0  0  0  0  0  0  0  0  0  0
    7.0533   46.9522   49.8729 H   0  0  0  0  0  0  0  0  0  0  0  0
    5.5944   46.1876   51.8720 H   0  0  0  0  0  0  0  0  0  0  0  0
    6.7528   49.1199   51.1814 H   0  0  0  0  0  0  0  0  0  0  0  0
    5.4350   49.2460   51.9987 H   0  0  0  0  0  0  0  0  0  0  0  0
    8.1668   47.8166   52.9372 H   0  0  0  0  0  0  0  0  0  0  0  0
    7.0961   47.7148   54.0614 H   0  0  0  0  0  0  0  0  0  0  0  0
    3.7274   47.0439   52.6599 H   0  0  0  0  0  0  0  0  0  0  0  0
    3.3313   45.3713   52.1380 H   0  0  0  0  0  0  0  0  0  0  0  0
    2.0809   46.3821   52.9389 H   0  0  0  0  0  0  0  0  0  0  0  0
  1  2  1  0
  2  3  2  0
  3  4  1  0
  4  5  1  0
  5  6  1  0
  6  7  1  0
  7  8  2  0
  7  9  1  0
  9 10  2  0
 10 11  1  0
 10 12  1  0
 12 13  2  0
 13 14  1  0
 14 15  2  0
 15 16  1  0
 16 17  1  0
 17 18  1  0
 18 19  1  0
 19 20  1  0
  5 21  2  0
 21 22  1  0
 21  2  1  0
 15  9  1  0
 20 18  1  0
  1 23  1  0
  1 24  1  0
  1 25  1  0
  4 26  1  0
  6 27  1  0
 12 28  1  0
 13 29  1  0
 14 30  1  0
 17 31  1  0
 17 32  1  0
 18 33  1  0
 19 34  1  0
 19 35  1  0
 20 36  1  0
 20 37  1  0
 22 38  1  0
 22 39  1  0
 22 40  1  0
M  END
>  <meeko>  (6) 
{"is_sidechain": false}

>  <CID>  (6) 
Z3006954377

>  <pose_index>  (6) 
10

>  <docking_score>  (6) 
-7.537

>  <rmsd_to_best_selected>  (6) 
1.5648866184466088

>  <MWT>  (6) 
319.7919999999997

>  <TPSA>  (6) 
67.01

>  <logP>  (6) 
3.721040000000003

>  <HBD>  (6) 
2

>  <HBA>  (6) 
3

>  <SMILES>  (6) 
[H]c1c([H])c(Cl)c(C(=O)N([H])c2c(C([H])([H])[H])c(C([H])([H])[H])nn2[H])c(OC([H])([H])C2([H])C([H])([H])C2([H])[H])c1[H]

$$$$
