Z3071600379_pose1
     RDKit          3D

 39 41  0  0  0  0  0  0  0  0999 V2000
    7.7860   44.7680   49.6490 O   0  0  0  0  0  0  0  0  0  0  0  0
    7.0250   43.8310   49.8560 C   0  0  0  0  0  0  0  0  0  0  0  0
    7.2380   42.5830   49.3270 N   0  0  0  0  0  0  0  0  0  0  0  0
    6.3990   41.5310   49.5520 C   0  0  0  0  0  0  0  0  0  0  0  0
    5.3340   41.5950   50.2750 N   0  0  0  0  0  0  0  0  0  0  0  0
    5.0260   42.8310   50.8670 C   0  0  0  0  0  0  0  0  0  0  0  0
    3.8880   42.9370   51.6650 C   0  0  0  0  0  0  0  0  0  0  0  0
    3.5450   44.1560   52.2600 C   0  0  0  0  0  0  0  0  0  0  0  0
    4.3270   45.2930   52.0450 C   0  0  0  0  0  0  0  0  0  0  0  0
    4.0300   46.5470   52.6450 N   0  0  0  0  0  0  0  0  0  0  0  0
    4.2170   46.8430   54.2830 S   0  0  0  0  0  0  0  0  0  0  0  0
    4.3330   48.2610   54.5410 O   0  0  0  0  0  0  0  0  0  0  0  0
    3.1640   46.0750   54.9180 O   0  0  0  0  0  0  0  0  0  0  0  0
    5.7510   46.0350   54.7160 C   0  0  0  0  0  0  0  0  0  0  0  0
    6.9820   46.8760   54.4470 C   0  0  0  0  0  0  0  0  0  0  0  0
    6.8090   47.5790   53.2150 O   0  0  0  0  0  0  0  0  0  0  0  0
    8.0250   47.7110   52.4720 C   0  0  0  0  0  0  0  0  0  0  0  0
    8.9270   46.5490   52.7420 C   0  0  0  0  0  0  0  0  0  0  0  0
   10.1850   46.3730   51.9280 C   0  0  0  0  0  0  0  0  0  0  0  0
   10.2790   46.7390   53.3830 C   0  0  0  0  0  0  0  0  0  0  0  0
    5.4870   45.1930   51.2780 C   0  0  0  0  0  0  0  0  0  0  0  0
    5.8200   43.9680   50.6910 C   0  0  0  0  0  0  0  0  0  0  0  0
    8.0630   42.4750   48.7550 H   0  0  0  0  0  0  0  0  0  0  0  0
    6.6475   40.5659   49.0863 H   0  0  0  0  0  0  0  0  0  0  0  0
    3.2534   42.0535   51.8286 H   0  0  0  0  0  0  0  0  0  0  0  0
    2.6536   44.2193   52.9013 H   0  0  0  0  0  0  0  0  0  0  0  0
    3.2830   47.1050   52.2300 H   0  0  0  0  0  0  0  0  0  0  0  0
    5.7244   45.7922   55.7885 H   0  0  0  0  0  0  0  0  0  0  0  0
    5.8308   45.1387   54.0834 H   0  0  0  0  0  0  0  0  0  0  0  0
    7.1214   47.5971   55.2659 H   0  0  0  0  0  0  0  0  0  0  0  0
    7.8671   46.2262   54.3813 H   0  0  0  0  0  0  0  0  0  0  0  0
    7.7917   47.7473   51.3976 H   0  0  0  0  0  0  0  0  0  0  0  0
    8.5330   48.6372   52.7788 H   0  0  0  0  0  0  0  0  0  0  0  0
    8.0449   45.9337   52.9729 H   0  0  0  0  0  0  0  0  0  0  0  0
   10.4871   45.3698   51.5929 H   0  0  0  0  0  0  0  0  0  0  0  0
   10.5715   46.8025   50.9920 H   0  0  0  0  0  0  0  0  0  0  0  0
   10.6499   46.0034   54.1119 H   0  0  0  0  0  0  0  0  0  0  0  0
   10.7629   47.5470   53.9513 H   0  0  0  0  0  0  0  0  0  0  0  0
    6.1350   46.0704   51.1357 H   0  0  0  0  0  0  0  0  0  0  0  0
  1  2  2  0
  2  3  1  0
  3  4  1  0
  4  5  2  0
  5  6  1  0
  6  7  2  0
  7  8  1  0
  8  9  2  0
  9 10  1  0
 10 11  1  0
 11 12  2  0
 11 13  2  0
 11 14  1  0
 14 15  1  0
 15 16  1  0
 16 17  1  0
 17 18  1  0
 18 19  1  0
 19 20  1  0
  9 21  1  0
 21 22  2  0
 22  2  1  0
 22  6  1  0
 20 18  1  0
  3 23  1  0
  4 24  1  0
  7 25  1  0
  8 26  1  0
 10 27  1  0
 14 28  1  0
 14 29  1  0
 15 30  1  0
 15 31  1  0
 17 32  1  0
 17 33  1  0
 18 34  1  0
 19 35  1  0
 19 36  1  0
 20 37  1  0
 20 38  1  0
 21 39  1  0
M  END
>  <meeko>  (1) 
{"is_sidechain": false}

>  <CID>  (1) 
Z3071600379

>  <pose_index>  (1) 
1

>  <docking_score>  (1) 
-8.112

>  <rmsd_to_best_selected>  (1) 
0.0

>  <MWT>  (1) 
323.37399999999974

>  <TPSA>  (1) 
101.14999999999999

>  <logP>  (1) 
1.0913999999999995

>  <HBD>  (1) 
2

>  <HBA>  (1) 
5

>  <SMILES>  (1) 
[H]c1c(N([H])S(=O)(=O)C([H])([H])C([H])([H])OC([H])([H])C2([H])C([H])([H])C2([H])[H])c([H])c2c(=O)n([H])c([H])nc2c1[H]

$$$$
Z3071600379_pose4
     RDKit          3D

 39 41  0  0  0  0  0  0  0  0999 V2000
    7.9517   42.7754   51.7445 O   0  0  0  0  0  0  0  0  0  0  0  0
    7.1000   42.6780   50.8709 C   0  0  0  0  0  0  0  0  0  0  0  0
    7.0086   41.5777   50.0554 N   0  0  0  0  0  0  0  0  0  0  0  0
    6.0623   41.4548   49.0804 C   0  0  0  0  0  0  0  0  0  0  0  0
    5.1668   42.3456   48.8249 N   0  0  0  0  0  0  0  0  0  0  0  0
    5.1703   43.5134   49.6056 C   0  0  0  0  0  0  0  0  0  0  0  0
    4.2091   44.4930   49.3658 C   0  0  0  0  0  0  0  0  0  0  0  0
    4.1919   45.6739   50.1186 C   0  0  0  0  0  0  0  0  0  0  0  0
    5.1523   45.8966   51.1067 C   0  0  0  0  0  0  0  0  0  0  0  0
    5.1611   47.0700   51.9100 N   0  0  0  0  0  0  0  0  0  0  0  0
    4.0359   47.3598   53.1160 S   0  0  0  0  0  0  0  0  0  0  0  0
    3.0192   48.2822   52.6617 O   0  0  0  0  0  0  0  0  0  0  0  0
    3.6604   46.0428   53.5916 O   0  0  0  0  0  0  0  0  0  0  0  0
    4.9733   48.1154   54.4373 C   0  0  0  0  0  0  0  0  0  0  0  0
    6.1695   47.2979   54.8810 C   0  0  0  0  0  0  0  0  0  0  0  0
    7.1715   47.3398   53.8627 O   0  0  0  0  0  0  0  0  0  0  0  0
    8.4527   46.9010   54.3217 C   0  0  0  0  0  0  0  0  0  0  0  0
    8.8823   45.6788   53.5747 C   0  0  0  0  0  0  0  0  0  0  0  0
   10.2628   45.6165   52.9702 C   0  0  0  0  0  0  0  0  0  0  0  0
    9.9177   44.7391   54.1406 C   0  0  0  0  0  0  0  0  0  0  0  0
    6.0968   44.9088   51.3817 C   0  0  0  0  0  0  0  0  0  0  0  0
    6.1017   43.7323   50.6246 C   0  0  0  0  0  0  0  0  0  0  0  0
    7.6850   40.8446   50.2165 H   0  0  0  0  0  0  0  0  0  0  0  0
    6.0638   40.5371   48.4739 H   0  0  0  0  0  0  0  0  0  0  0  0
    3.4571   44.3376   48.5782 H   0  0  0  0  0  0  0  0  0  0  0  0
    3.4163   46.4309   49.9299 H   0  0  0  0  0  0  0  0  0  0  0  0
    5.5099   47.9303   51.4868 H   0  0  0  0  0  0  0  0  0  0  0  0
    5.3320   49.0961   54.0916 H   0  0  0  0  0  0  0  0  0  0  0  0
    4.3001   48.1957   55.3035 H   0  0  0  0  0  0  0  0  0  0  0  0
    6.5754   47.7163   55.8139 H   0  0  0  0  0  0  0  0  0  0  0  0
    5.8616   46.2561   55.0537 H   0  0  0  0  0  0  0  0  0  0  0  0
    9.1893   47.7019   54.1609 H   0  0  0  0  0  0  0  0  0  0  0  0
    8.3851   46.6597   55.3928 H   0  0  0  0  0  0  0  0  0  0  0  0
    7.8537   45.5590   53.2038 H   0  0  0  0  0  0  0  0  0  0  0  0
   10.4072   45.1726   51.9741 H   0  0  0  0  0  0  0  0  0  0  0  0
   11.0517   46.3529   52.7569 H   0  0  0  0  0  0  0  0  0  0  0  0
    9.8096   43.6534   54.0006 H   0  0  0  0  0  0  0  0  0  0  0  0
   10.3496   44.5680   55.1377 H   0  0  0  0  0  0  0  0  0  0  0  0
    6.8319   45.0531   52.1872 H   0  0  0  0  0  0  0  0  0  0  0  0
  1  2  2  0
  2  3  1  0
  3  4  1  0
  4  5  2  0
  5  6  1  0
  6  7  2  0
  7  8  1  0
  8  9  2  0
  9 10  1  0
 10 11  1  0
 11 12  2  0
 11 13  2  0
 11 14  1  0
 14 15  1  0
 15 16  1  0
 16 17  1  0
 17 18  1  0
 18 19  1  0
 19 20  1  0
  9 21  1  0
 21 22  2  0
 22  2  1  0
 22  6  1  0
 20 18  1  0
  3 23  1  0
  4 24  1  0
  7 25  1  0
  8 26  1  0
 10 27  1  0
 14 28  1  0
 14 29  1  0
 15 30  1  0
 15 31  1  0
 17 32  1  0
 17 33  1  0
 18 34  1  0
 19 35  1  0
 19 36  1  0
 20 37  1  0
 20 38  1  0
 21 39  1  0
M  END
>  <meeko>  (2) 
{"is_sidechain": false}

>  <CID>  (2) 
Z3071600379

>  <pose_index>  (2) 
4

>  <docking_score>  (2) 
-7.565

>  <rmsd_to_best_selected>  (2) 
1.374102442242482

>  <MWT>  (2) 
323.37399999999974

>  <TPSA>  (2) 
101.14999999999999

>  <logP>  (2) 
1.0913999999999995

>  <HBD>  (2) 
2

>  <HBA>  (2) 
5

>  <SMILES>  (2) 
[H]c1c(N([H])S(=O)(=O)C([H])([H])C([H])([H])OC([H])([H])C2([H])C([H])([H])C2([H])[H])c([H])c2c(=O)n([H])c([H])nc2c1[H]

$$$$
Z3071600379_pose5
     RDKit          3D

 39 41  0  0  0  0  0  0  0  0999 V2000
    8.4184   43.2115   51.0813 O   0  0  0  0  0  0  0  0  0  0  0  0
    7.4795   43.1584   50.2969 C   0  0  0  0  0  0  0  0  0  0  0  0
    7.5857   42.5583   49.0673 N   0  0  0  0  0  0  0  0  0  0  0  0
    6.5474   42.4895   48.1849 C   0  0  0  0  0  0  0  0  0  0  0  0
    5.3740   42.9729   48.4083 N   0  0  0  0  0  0  0  0  0  0  0  0
    5.1589   43.6078   49.6430 C   0  0  0  0  0  0  0  0  0  0  0  0
    3.8982   44.1327   49.9264 C   0  0  0  0  0  0  0  0  0  0  0  0
    3.6531   44.7818   51.1417 C   0  0  0  0  0  0  0  0  0  0  0  0
    4.6741   44.9334   52.0815 C   0  0  0  0  0  0  0  0  0  0  0  0
    4.4656   45.5644   53.3386 N   0  0  0  0  0  0  0  0  0  0  0  0
    4.3316   47.2242   53.5153 S   0  0  0  0  0  0  0  0  0  0  0  0
    3.3335   47.7599   52.6143 O   0  0  0  0  0  0  0  0  0  0  0  0
    4.2029   47.4327   54.9439 O   0  0  0  0  0  0  0  0  0  0  0  0
    5.9392   47.8602   53.0630 C   0  0  0  0  0  0  0  0  0  0  0  0
    6.6119   48.6562   54.1630 C   0  0  0  0  0  0  0  0  0  0  0  0
    7.7208   47.9111   54.6707 O   0  0  0  0  0  0  0  0  0  0  0  0
    8.2295   46.9593   53.7331 C   0  0  0  0  0  0  0  0  0  0  0  0
    9.1113   45.9684   54.4246 C   0  0  0  0  0  0  0  0  0  0  0  0
    8.6435   44.5455   54.6017 C   0  0  0  0  0  0  0  0  0  0  0  0
    9.7784   44.8497   53.6646 C   0  0  0  0  0  0  0  0  0  0  0  0
    5.9293   44.3801   51.8272 C   0  0  0  0  0  0  0  0  0  0  0  0
    6.1603   43.7321   50.6103 C   0  0  0  0  0  0  0  0  0  0  0  0
    8.4845   42.1574   48.8416 H   0  0  0  0  0  0  0  0  0  0  0  0
    6.7232   41.9893   47.2211 H   0  0  0  0  0  0  0  0  0  0  0  0
    3.0889   44.0355   49.1878 H   0  0  0  0  0  0  0  0  0  0  0  0
    2.6489   45.1753   51.3579 H   0  0  0  0  0  0  0  0  0  0  0  0
    4.8609   45.1144   54.1649 H   0  0  0  0  0  0  0  0  0  0  0  0
    6.5878   47.0107   52.8029 H   0  0  0  0  0  0  0  0  0  0  0  0
    5.7865   48.5468   52.2173 H   0  0  0  0  0  0  0  0  0  0  0  0
    6.9673   49.6153   53.7584 H   0  0  0  0  0  0  0  0  0  0  0  0
    5.8931   48.8478   54.9733 H   0  0  0  0  0  0  0  0  0  0  0  0
    7.3887   46.4296   53.2616 H   0  0  0  0  0  0  0  0  0  0  0  0
    8.8175   47.4891   52.9692 H   0  0  0  0  0  0  0  0  0  0  0  0
    9.4692   46.7689   55.0889 H   0  0  0  0  0  0  0  0  0  0  0  0
    8.8375   44.0167   55.5466 H   0  0  0  0  0  0  0  0  0  0  0  0
    7.6773   44.0280   54.5099 H   0  0  0  0  0  0  0  0  0  0  0  0
   10.8026   44.5433   53.9240 H   0  0  0  0  0  0  0  0  0  0  0  0
    9.9858   44.6467   52.6036 H   0  0  0  0  0  0  0  0  0  0  0  0
    6.7302   44.4532   52.5777 H   0  0  0  0  0  0  0  0  0  0  0  0
  1  2  2  0
  2  3  1  0
  3  4  1  0
  4  5  2  0
  5  6  1  0
  6  7  2  0
  7  8  1  0
  8  9  2  0
  9 10  1  0
 10 11  1  0
 11 12  2  0
 11 13  2  0
 11 14  1  0
 14 15  1  0
 15 16  1  0
 16 17  1  0
 17 18  1  0
 18 19  1  0
 19 20  1  0
  9 21  1  0
 21 22  2  0
 22  2  1  0
 22  6  1  0
 20 18  1  0
  3 23  1  0
  4 24  1  0
  7 25  1  0
  8 26  1  0
 10 27  1  0
 14 28  1  0
 14 29  1  0
 15 30  1  0
 15 31  1  0
 17 32  1  0
 17 33  1  0
 18 34  1  0
 19 35  1  0
 19 36  1  0
 20 37  1  0
 20 38  1  0
 21 39  1  0
M  END
>  <meeko>  (3) 
{"is_sidechain": false}

>  <CID>  (3) 
Z3071600379

>  <pose_index>  (3) 
5

>  <docking_score>  (3) 
-7.431

>  <rmsd_to_best_selected>  (3) 
1.8154406398066698

>  <MWT>  (3) 
323.37399999999974

>  <TPSA>  (3) 
101.14999999999999

>  <logP>  (3) 
1.0913999999999995

>  <HBD>  (3) 
2

>  <HBA>  (3) 
5

>  <SMILES>  (3) 
[H]c1c(N([H])S(=O)(=O)C([H])([H])C([H])([H])OC([H])([H])C2([H])C([H])([H])C2([H])[H])c([H])c2c(=O)n([H])c([H])nc2c1[H]

$$$$
Z3071600379_pose6
     RDKit          3D

 39 41  0  0  0  0  0  0  0  0999 V2000
    7.2258   41.6624   51.6942 O   0  0  0  0  0  0  0  0  0  0  0  0
    6.6145   41.9527   50.6735 C   0  0  0  0  0  0  0  0  0  0  0  0
    6.4710   41.0725   49.6302 N   0  0  0  0  0  0  0  0  0  0  0  0
    5.7893   41.3823   48.4899 C   0  0  0  0  0  0  0  0  0  0  0  0
    5.2176   42.5166   48.2731 N   0  0  0  0  0  0  0  0  0  0  0  0
    5.3031   43.4893   49.2818 C   0  0  0  0  0  0  0  0  0  0  0  0
    4.6852   44.7238   49.0894 C   0  0  0  0  0  0  0  0  0  0  0  0
    4.7606   45.7196   50.0695 C   0  0  0  0  0  0  0  0  0  0  0  0
    5.4761   45.4991   51.2490 C   0  0  0  0  0  0  0  0  0  0  0  0
    5.5618   46.4729   52.2811 N   0  0  0  0  0  0  0  0  0  0  0  0
    4.5858   46.4494   53.6424 S   0  0  0  0  0  0  0  0  0  0  0  0
    3.1919   46.3324   53.2749 O   0  0  0  0  0  0  0  0  0  0  0  0
    5.1920   45.4606   54.5117 O   0  0  0  0  0  0  0  0  0  0  0  0
    4.8619   48.0330   54.4235 C   0  0  0  0  0  0  0  0  0  0  0  0
    6.2419   48.1813   55.0319 C   0  0  0  0  0  0  0  0  0  0  0  0
    7.2274   47.9490   54.0235 O   0  0  0  0  0  0  0  0  0  0  0  0
    8.4427   47.4043   54.5459 C   0  0  0  0  0  0  0  0  0  0  0  0
    9.1732   46.6507   53.4812 C   0  0  0  0  0  0  0  0  0  0  0  0
   10.2774   45.6961   53.8624 C   0  0  0  0  0  0  0  0  0  0  0  0
    8.9870   45.1646   53.3058 C   0  0  0  0  0  0  0  0  0  0  0  0
    6.0668   44.2565   51.4705 C   0  0  0  0  0  0  0  0  0  0  0  0
    5.9820   43.2680   50.4842 C   0  0  0  0  0  0  0  0  0  0  0  0
    6.8971   40.1645   49.7494 H   0  0  0  0  0  0  0  0  0  0  0  0
    5.7233   40.6145   47.7050 H   0  0  0  0  0  0  0  0  0  0  0  0
    4.1329   44.9172   48.1580 H   0  0  0  0  0  0  0  0  0  0  0  0
    4.2531   46.6824   49.9102 H   0  0  0  0  0  0  0  0  0  0  0  0
    5.8424   47.4180   52.0182 H   0  0  0  0  0  0  0  0  0  0  0  0
    4.7296   48.8207   53.6672 H   0  0  0  0  0  0  0  0  0  0  0  0
    4.1375   48.1151   55.2472 H   0  0  0  0  0  0  0  0  0  0  0  0
    6.3594   49.1985   55.4338 H   0  0  0  0  0  0  0  0  0  0  0  0
    6.3671   47.4522   55.8460 H   0  0  0  0  0  0  0  0  0  0  0  0
    9.0791   48.2231   54.9127 H   0  0  0  0  0  0  0  0  0  0  0  0
    8.2015   46.7166   55.3698 H   0  0  0  0  0  0  0  0  0  0  0  0
    9.0794   47.5226   52.8172 H   0  0  0  0  0  0  0  0  0  0  0  0
   11.1965   45.6499   53.2598 H   0  0  0  0  0  0  0  0  0  0  0  0
   10.8652   45.5117   54.7738 H   0  0  0  0  0  0  0  0  0  0  0  0
    8.9621   44.7293   52.2959 H   0  0  0  0  0  0  0  0  0  0  0  0
    8.2401   44.4302   53.6414 H   0  0  0  0  0  0  0  0  0  0  0  0
    6.5958   44.0544   52.4136 H   0  0  0  0  0  0  0  0  0  0  0  0
  1  2  2  0
  2  3  1  0
  3  4  1  0
  4  5  2  0
  5  6  1  0
  6  7  2  0
  7  8  1  0
  8  9  2  0
  9 10  1  0
 10 11  1  0
 11 12  2  0
 11 13  2  0
 11 14  1  0
 14 15  1  0
 15 16  1  0
 16 17  1  0
 17 18  1  0
 18 19  1  0
 19 20  1  0
  9 21  1  0
 21 22  2  0
 22  2  1  0
 22  6  1  0
 20 18  1  0
  3 23  1  0
  4 24  1  0
  7 25  1  0
  8 26  1  0
 10 27  1  0
 14 28  1  0
 14 29  1  0
 15 30  1  0
 15 31  1  0
 17 32  1  0
 17 33  1  0
 18 34  1  0
 19 35  1  0
 19 36  1  0
 20 37  1  0
 20 38  1  0
 21 39  1  0
M  END
>  <meeko>  (4) 
{"is_sidechain": false}

>  <CID>  (4) 
Z3071600379

>  <pose_index>  (4) 
6

>  <docking_score>  (4) 
-7.376

>  <rmsd_to_best_selected>  (4) 
1.9180025591685406

>  <MWT>  (4) 
323.37399999999974

>  <TPSA>  (4) 
101.14999999999999

>  <logP>  (4) 
1.0913999999999995

>  <HBD>  (4) 
2

>  <HBA>  (4) 
5

>  <SMILES>  (4) 
[H]c1c(N([H])S(=O)(=O)C([H])([H])C([H])([H])OC([H])([H])C2([H])C([H])([H])C2([H])[H])c([H])c2c(=O)n([H])c([H])nc2c1[H]

$$$$
Z3071600379_pose7
     RDKit          3D

 39 41  0  0  0  0  0  0  0  0999 V2000
    8.4199   43.5729   50.9474 O   0  0  0  0  0  0  0  0  0  0  0  0
    7.4330   43.2271   50.3094 C   0  0  0  0  0  0  0  0  0  0  0  0
    7.4905   42.2557   49.3420 N   0  0  0  0  0  0  0  0  0  0  0  0
    6.3985   41.8586   48.6274 C   0  0  0  0  0  0  0  0  0  0  0  0
    5.2153   42.3459   48.7807 N   0  0  0  0  0  0  0  0  0  0  0  0
    5.0482   43.3475   49.7511 C   0  0  0  0  0  0  0  0  0  0  0  0
    3.7798   43.8907   49.9540 C   0  0  0  0  0  0  0  0  0  0  0  0
    3.5807   44.8981   50.9054 C   0  0  0  0  0  0  0  0  0  0  0  0
    4.6540   45.3920   51.6495 C   0  0  0  0  0  0  0  0  0  0  0  0
    4.4957   46.3990   52.6402 N   0  0  0  0  0  0  0  0  0  0  0  0
    4.8307   48.0163   52.3613 S   0  0  0  0  0  0  0  0  0  0  0  0
    5.0294   48.2659   50.9503 O   0  0  0  0  0  0  0  0  0  0  0  0
    3.8025   48.7351   53.0864 O   0  0  0  0  0  0  0  0  0  0  0  0
    6.3589   48.3187   53.2374 C   0  0  0  0  0  0  0  0  0  0  0  0
    6.2940   47.9807   54.7130 C   0  0  0  0  0  0  0  0  0  0  0  0
    6.4718   46.5735   54.8811 O   0  0  0  0  0  0  0  0  0  0  0  0
    7.8328   46.2074   55.1248 C   0  0  0  0  0  0  0  0  0  0  0  0
    8.3447   45.3436   54.0172 C   0  0  0  0  0  0  0  0  0  0  0  0
    9.7045   45.6159   53.4225 C   0  0  0  0  0  0  0  0  0  0  0  0
    9.4793   44.3749   54.2393 C   0  0  0  0  0  0  0  0  0  0  0  0
    5.9201   44.8324   51.4813 C   0  0  0  0  0  0  0  0  0  0  0  0
    6.1053   43.8237   50.5304 C   0  0  0  0  0  0  0  0  0  0  0  0
    8.3941   41.8351   49.1832 H   0  0  0  0  0  0  0  0  0  0  0  0
    6.5367   41.0715   47.8715 H   0  0  0  0  0  0  0  0  0  0  0  0
    2.9285   43.5244   49.3614 H   0  0  0  0  0  0  0  0  0  0  0  0
    2.5712   45.3037   51.0679 H   0  0  0  0  0  0  0  0  0  0  0  0
    4.6434   46.1317   53.6139 H   0  0  0  0  0  0  0  0  0  0  0  0
    7.1497   47.7089   52.7763 H   0  0  0  0  0  0  0  0  0  0  0  0
    6.5627   49.3971   53.1640 H   0  0  0  0  0  0  0  0  0  0  0  0
    7.0898   48.5187   55.2490 H   0  0  0  0  0  0  0  0  0  0  0  0
    5.3162   48.2805   55.1180 H   0  0  0  0  0  0  0  0  0  0  0  0
    8.4474   47.1175   55.1888 H   0  0  0  0  0  0  0  0  0  0  0  0
    7.8886   45.6474   56.0700 H   0  0  0  0  0  0  0  0  0  0  0  0
    7.3189   45.2529   53.6306 H   0  0  0  0  0  0  0  0  0  0  0  0
    9.8545   45.5389   52.3355 H   0  0  0  0  0  0  0  0  0  0  0  0
   10.4163   46.4536   53.4618 H   0  0  0  0  0  0  0  0  0  0  0  0
    9.4648   43.3899   53.7498 H   0  0  0  0  0  0  0  0  0  0  0  0
    9.9585   43.9291   55.1234 H   0  0  0  0  0  0  0  0  0  0  0  0
    6.7663   45.1816   52.0913 H   0  0  0  0  0  0  0  0  0  0  0  0
  1  2  2  0
  2  3  1  0
  3  4  1  0
  4  5  2  0
  5  6  1  0
  6  7  2  0
  7  8  1  0
  8  9  2  0
  9 10  1  0
 10 11  1  0
 11 12  2  0
 11 13  2  0
 11 14  1  0
 14 15  1  0
 15 16  1  0
 16 17  1  0
 17 18  1  0
 18 19  1  0
 19 20  1  0
  9 21  1  0
 21 22  2  0
 22  2  1  0
 22  6  1  0
 20 18  1  0
  3 23  1  0
  4 24  1  0
  7 25  1  0
  8 26  1  0
 10 27  1  0
 14 28  1  0
 14 29  1  0
 15 30  1  0
 15 31  1  0
 17 32  1  0
 17 33  1  0
 18 34  1  0
 19 35  1  0
 19 36  1  0
 20 37  1  0
 20 38  1  0
 21 39  1  0
M  END
>  <meeko>  (5) 
{"is_sidechain": false}

>  <CID>  (5) 
Z3071600379

>  <pose_index>  (5) 
7

>  <docking_score>  (5) 
-7.352

>  <rmsd_to_best_selected>  (5) 
1.764037626626674

>  <MWT>  (5) 
323.37399999999974

>  <TPSA>  (5) 
101.14999999999999

>  <logP>  (5) 
1.0913999999999995

>  <HBD>  (5) 
2

>  <HBA>  (5) 
5

>  <SMILES>  (5) 
[H]c1c(N([H])S(=O)(=O)C([H])([H])C([H])([H])OC([H])([H])C2([H])C([H])([H])C2([H])[H])c([H])c2c(=O)n([H])c([H])nc2c1[H]

$$$$
Z3071600379_pose8
     RDKit          3D

 39 41  0  0  0  0  0  0  0  0999 V2000
    7.9996   43.3999   51.4781 O   0  0  0  0  0  0  0  0  0  0  0  0
    7.0880   43.1452   50.7002 C   0  0  0  0  0  0  0  0  0  0  0  0
    7.2058   42.1906   49.7217 N   0  0  0  0  0  0  0  0  0  0  0  0
    6.1973   41.8947   48.8519 C   0  0  0  0  0  0  0  0  0  0  0  0
    5.0447   42.4708   48.8556 N   0  0  0  0  0  0  0  0  0  0  0  0
    4.8190   43.4639   49.8243 C   0  0  0  0  0  0  0  0  0  0  0  0
    3.5800   44.0992   49.8676 C   0  0  0  0  0  0  0  0  0  0  0  0
    3.3262   45.1018   50.8120 C   0  0  0  0  0  0  0  0  0  0  0  0
    4.3196   45.4951   51.7103 C   0  0  0  0  0  0  0  0  0  0  0  0
    4.1001   46.4922   52.7002 N   0  0  0  0  0  0  0  0  0  0  0  0
    4.2256   48.1326   52.3884 S   0  0  0  0  0  0  0  0  0  0  0  0
    4.0978   48.3990   50.9719 O   0  0  0  0  0  0  0  0  0  0  0  0
    3.3139   48.7555   53.3280 O   0  0  0  0  0  0  0  0  0  0  0  0
    5.8718   48.5714   52.9283 C   0  0  0  0  0  0  0  0  0  0  0  0
    6.4495   47.6222   53.9584 C   0  0  0  0  0  0  0  0  0  0  0  0
    7.6950   47.1109   53.4787 O   0  0  0  0  0  0  0  0  0  0  0  0
    8.1344   45.9517   54.1916 C   0  0  0  0  0  0  0  0  0  0  0  0
    9.5259   45.5866   53.7829 C   0  0  0  0  0  0  0  0  0  0  0  0
   10.6358   45.6049   54.8044 C   0  0  0  0  0  0  0  0  0  0  0  0
   10.1618   44.2960   54.2371 C   0  0  0  0  0  0  0  0  0  0  0  0
    5.5518   44.8412   51.7015 C   0  0  0  0  0  0  0  0  0  0  0  0
    5.7910   43.8405   50.7557 C   0  0  0  0  0  0  0  0  0  0  0  0
    8.0898   41.7041   49.6749 H   0  0  0  0  0  0  0  0  0  0  0  0
    6.3799   41.1139   48.0989 H   0  0  0  0  0  0  0  0  0  0  0  0
    2.7942   43.8110   49.1538 H   0  0  0  0  0  0  0  0  0  0  0  0
    2.3374   45.5826   50.8460 H   0  0  0  0  0  0  0  0  0  0  0  0
    4.3352   46.2593   53.6654 H   0  0  0  0  0  0  0  0  0  0  0  0
    6.5350   48.5765   52.0507 H   0  0  0  0  0  0  0  0  0  0  0  0
    5.8000   49.5592   53.4067 H   0  0  0  0  0  0  0  0  0  0  0  0
    6.6122   48.1600   54.9041 H   0  0  0  0  0  0  0  0  0  0  0  0
    5.7495   46.7911   54.1293 H   0  0  0  0  0  0  0  0  0  0  0  0
    8.1167   46.1615   55.2712 H   0  0  0  0  0  0  0  0  0  0  0  0
    7.4618   45.1128   53.9593 H   0  0  0  0  0  0  0  0  0  0  0  0
    9.3484   46.0553   52.8037 H   0  0  0  0  0  0  0  0  0  0  0  0
   11.6274   45.9953   54.5317 H   0  0  0  0  0  0  0  0  0  0  0  0
   10.7523   46.0159   55.8181 H   0  0  0  0  0  0  0  0  0  0  0  0
   10.8067   43.7292   53.5495 H   0  0  0  0  0  0  0  0  0  0  0  0
    9.7881   43.3537   54.6641 H   0  0  0  0  0  0  0  0  0  0  0  0
    6.3282   45.1108   52.4326 H   0  0  0  0  0  0  0  0  0  0  0  0
  1  2  2  0
  2  3  1  0
  3  4  1  0
  4  5  2  0
  5  6  1  0
  6  7  2  0
  7  8  1  0
  8  9  2  0
  9 10  1  0
 10 11  1  0
 11 12  2  0
 11 13  2  0
 11 14  1  0
 14 15  1  0
 15 16  1  0
 16 17  1  0
 17 18  1  0
 18 19  1  0
 19 20  1  0
  9 21  1  0
 21 22  2  0
 22  2  1  0
 22  6  1  0
 20 18  1  0
  3 23  1  0
  4 24  1  0
  7 25  1  0
  8 26  1  0
 10 27  1  0
 14 28  1  0
 14 29  1  0
 15 30  1  0
 15 31  1  0
 17 32  1  0
 17 33  1  0
 18 34  1  0
 19 35  1  0
 19 36  1  0
 20 37  1  0
 20 38  1  0
 21 39  1  0
M  END
>  <meeko>  (6) 
{"is_sidechain": false}

>  <CID>  (6) 
Z3071600379

>  <pose_index>  (6) 
8

>  <docking_score>  (6) 
-7.235

>  <rmsd_to_best_selected>  (6) 
1.6388071385213967

>  <MWT>  (6) 
323.37399999999974

>  <TPSA>  (6) 
101.14999999999999

>  <logP>  (6) 
1.0913999999999995

>  <HBD>  (6) 
2

>  <HBA>  (6) 
5

>  <SMILES>  (6) 
[H]c1c(N([H])S(=O)(=O)C([H])([H])C([H])([H])OC([H])([H])C2([H])C([H])([H])C2([H])[H])c([H])c2c(=O)n([H])c([H])nc2c1[H]

$$$$
