Z352550402_pose1
     RDKit          3D

 38 40  0  0  0  0  0  0  0  0999 V2000
    2.0230   42.3080   50.4400 O   0  0  0  0  0  0  0  0  0  0  0  0
    2.9340   42.0520   51.2270 C   0  0  0  0  0  0  0  0  0  0  0  0
    4.2770   41.4460   50.8020 C   0  0  0  0  0  0  0  0  0  0  0  0
    4.8900   42.0470   49.6740 O   0  0  0  0  0  0  0  0  0  0  0  0
    5.8270   43.0180   49.8900 C   0  0  0  0  0  0  0  0  0  0  0  0
    5.4340   44.0100   50.7900 C   0  0  0  0  0  0  0  0  0  0  0  0
    6.2930   45.0670   51.1090 C   0  0  0  0  0  0  0  0  0  0  0  0
    7.5690   45.1550   50.5380 C   0  0  0  0  0  0  0  0  0  0  0  0
    8.3860   46.2510   50.8570 N   0  0  0  0  0  0  0  0  0  0  0  0
    8.8330   46.7670   52.0850 C   0  0  0  0  0  0  0  0  0  0  0  0
    9.9420   46.2560   52.7700 C   0  0  0  0  0  0  0  0  0  0  0  0
   10.3260   46.7750   54.0100 C   0  0  0  0  0  0  0  0  0  0  0  0
    9.5970   47.8100   54.5900 C   0  0  0  0  0  0  0  0  0  0  0  0
    8.4870   48.3260   53.9290 C   0  0  0  0  0  0  0  0  0  0  0  0
    8.1080   47.8050   52.6880 C   0  0  0  0  0  0  0  0  0  0  0  0
    7.9470   44.1610   49.6300 C   0  0  0  0  0  0  0  0  0  0  0  0
    7.0890   43.0990   49.3090 C   0  0  0  0  0  0  0  0  0  0  0  0
    2.8600   42.2850   52.5870 N   0  0  0  0  0  0  0  0  0  0  0  0
    1.7400   42.8120   53.1740 C   0  0  0  0  0  0  0  0  0  0  0  0
    1.6690   43.9610   53.8050 N   0  0  0  0  0  0  0  0  0  0  0  0
    0.3710   44.1180   54.2470 N   0  0  0  0  0  0  0  0  0  0  0  0
   -0.3090   43.0590   53.8700 C   0  0  0  0  0  0  0  0  0  0  0  0
    0.5090   42.2130   53.1950 N   0  0  0  0  0  0  0  0  0  0  0  0
    4.9712   41.5326   51.6508 H   0  0  0  0  0  0  0  0  0  0  0  0
    4.0599   40.4081   50.5095 H   0  0  0  0  0  0  0  0  0  0  0  0
    4.4377   43.9600   51.2536 H   0  0  0  0  0  0  0  0  0  0  0  0
    5.9618   45.8399   51.8182 H   0  0  0  0  0  0  0  0  0  0  0  0
    8.7460   46.7490   50.0500 H   0  0  0  0  0  0  0  0  0  0  0  0
   10.5205   45.4328   52.3253 H   0  0  0  0  0  0  0  0  0  0  0  0
   11.2054   46.3651   54.5283 H   0  0  0  0  0  0  0  0  0  0  0  0
    9.8975   48.2178   55.5664 H   0  0  0  0  0  0  0  0  0  0  0  0
    7.9076   49.1437   54.3825 H   0  0  0  0  0  0  0  0  0  0  0  0
    7.2258   48.2165   52.1758 H   0  0  0  0  0  0  0  0  0  0  0  0
    8.9388   44.2131   49.1572 H   0  0  0  0  0  0  0  0  0  0  0  0
    7.4146   42.3276   48.5957 H   0  0  0  0  0  0  0  0  0  0  0  0
    3.6270   42.0810   53.2140 H   0  0  0  0  0  0  0  0  0  0  0  0
   -1.3765   42.8852   54.0706 H   0  0  0  0  0  0  0  0  0  0  0  0
    0.2930   41.3160   52.7770 H   0  0  0  0  0  0  0  0  0  0  0  0
  1  2  2  0
  2  3  1  0
  3  4  1  0
  4  5  1  0
  5  6  2  0
  6  7  1  0
  7  8  2  0
  8  9  1  0
  9 10  1  0
 10 11  2  0
 11 12  1  0
 12 13  2  0
 13 14  1  0
 14 15  2  0
  8 16  1  0
 16 17  2  0
  2 18  1  0
 18 19  1  0
 19 20  2  0
 20 21  1  0
 21 22  2  0
 22 23  1  0
 17  5  1  0
 23 19  1  0
 15 10  1  0
  3 24  1  0
  3 25  1  0
  6 26  1  0
  7 27  1  0
  9 28  1  0
 11 29  1  0
 12 30  1  0
 13 31  1  0
 14 32  1  0
 15 33  1  0
 16 34  1  0
 17 35  1  0
 18 36  1  0
 22 37  1  0
 23 38  1  0
M  END
>  <meeko>  (1) 
{"is_sidechain": false}

>  <CID>  (1) 
Z352550402

>  <pose_index>  (1) 
1

>  <docking_score>  (1) 
-8.728

>  <rmsd_to_best_selected>  (1) 
0.0

>  <MWT>  (1) 
309.3289999999997

>  <TPSA>  (1) 
91.93

>  <logP>  (1) 
2.5657999999999994

>  <HBD>  (1) 
3

>  <HBA>  (1) 
5

>  <SMILES>  (1) 
[H]c1c([H])c([H])c(N([H])c2c([H])c([H])c(OC([H])([H])C(=O)N([H])c3nnc([H])n3[H])c([H])c2[H])c([H])c1[H]

$$$$
Z352550402_pose3
     RDKit          3D

 38 40  0  0  0  0  0  0  0  0999 V2000
    2.3667   40.3481   51.0915 O   0  0  0  0  0  0  0  0  0  0  0  0
    3.2080   41.2118   51.3380 C   0  0  0  0  0  0  0  0  0  0  0  0
    4.3999   41.5224   50.4238 C   0  0  0  0  0  0  0  0  0  0  0  0
    4.2874   42.7087   49.6556 O   0  0  0  0  0  0  0  0  0  0  0  0
    5.1377   43.7411   49.9343 C   0  0  0  0  0  0  0  0  0  0  0  0
    6.4751   43.3667   50.0736 C   0  0  0  0  0  0  0  0  0  0  0  0
    7.4593   44.3200   50.3569 C   0  0  0  0  0  0  0  0  0  0  0  0
    7.1284   45.6727   50.5047 C   0  0  0  0  0  0  0  0  0  0  0  0
    8.1400   46.5915   50.8246 N   0  0  0  0  0  0  0  0  0  0  0  0
    8.6909   46.9959   52.0527 C   0  0  0  0  0  0  0  0  0  0  0  0
    7.9705   46.9883   53.2529 C   0  0  0  0  0  0  0  0  0  0  0  0
    8.5484   47.4377   54.4446 C   0  0  0  0  0  0  0  0  0  0  0  0
    9.8566   47.9134   54.4500 C   0  0  0  0  0  0  0  0  0  0  0  0
   10.5873   47.9365   53.2669 C   0  0  0  0  0  0  0  0  0  0  0  0
   10.0067   47.4837   52.0779 C   0  0  0  0  0  0  0  0  0  0  0  0
    5.7841   46.0339   50.3734 C   0  0  0  0  0  0  0  0  0  0  0  0
    4.7962   45.0811   50.0867 C   0  0  0  0  0  0  0  0  0  0  0  0
    3.1781   42.0108   52.4653 N   0  0  0  0  0  0  0  0  0  0  0  0
    2.2016   41.8874   53.4178 C   0  0  0  0  0  0  0  0  0  0  0  0
    2.3926   41.5871   54.6825 N   0  0  0  0  0  0  0  0  0  0  0  0
    1.1590   41.5598   55.2995 N   0  0  0  0  0  0  0  0  0  0  0  0
    0.2535   41.8465   54.3912 C   0  0  0  0  0  0  0  0  0  0  0  0
    0.8626   42.0583   53.1960 N   0  0  0  0  0  0  0  0  0  0  0  0
    5.2967   41.6109   51.0546 H   0  0  0  0  0  0  0  0  0  0  0  0
    4.4473   40.6966   49.6987 H   0  0  0  0  0  0  0  0  0  0  0  0
    6.7586   42.3100   49.9594 H   0  0  0  0  0  0  0  0  0  0  0  0
    8.5070   44.0027   50.4651 H   0  0  0  0  0  0  0  0  0  0  0  0
    8.5767   47.0261   50.0192 H   0  0  0  0  0  0  0  0  0  0  0  0
    6.9330   46.6229   53.2589 H   0  0  0  0  0  0  0  0  0  0  0  0
    7.9684   47.4152   55.3789 H   0  0  0  0  0  0  0  0  0  0  0  0
   10.3107   48.2697   55.3865 H   0  0  0  0  0  0  0  0  0  0  0  0
   11.6217   48.3109   53.2664 H   0  0  0  0  0  0  0  0  0  0  0  0
   10.5913   47.5102   51.1465 H   0  0  0  0  0  0  0  0  0  0  0  0
    5.4954   47.0880   50.4978 H   0  0  0  0  0  0  0  0  0  0  0  0
    3.7470   45.3944   49.9818 H   0  0  0  0  0  0  0  0  0  0  0  0
    3.8714   42.7265   52.6410 H   0  0  0  0  0  0  0  0  0  0  0  0
   -0.8300   41.9059   54.5712 H   0  0  0  0  0  0  0  0  0  0  0  0
    0.4465   42.2964   52.3045 H   0  0  0  0  0  0  0  0  0  0  0  0
  1  2  2  0
  2  3  1  0
  3  4  1  0
  4  5  1  0
  5  6  2  0
  6  7  1  0
  7  8  2  0
  8  9  1  0
  9 10  1  0
 10 11  2  0
 11 12  1  0
 12 13  2  0
 13 14  1  0
 14 15  2  0
  8 16  1  0
 16 17  2  0
  2 18  1  0
 18 19  1  0
 19 20  2  0
 20 21  1  0
 21 22  2  0
 22 23  1  0
 17  5  1  0
 23 19  1  0
 15 10  1  0
  3 24  1  0
  3 25  1  0
  6 26  1  0
  7 27  1  0
  9 28  1  0
 11 29  1  0
 12 30  1  0
 13 31  1  0
 14 32  1  0
 15 33  1  0
 16 34  1  0
 17 35  1  0
 18 36  1  0
 22 37  1  0
 23 38  1  0
M  END
>  <meeko>  (2) 
{"is_sidechain": false}

>  <CID>  (2) 
Z352550402

>  <pose_index>  (2) 
3

>  <docking_score>  (2) 
-8.69

>  <rmsd_to_best_selected>  (2) 
1.2081103131139979

>  <MWT>  (2) 
309.3289999999997

>  <TPSA>  (2) 
91.93

>  <logP>  (2) 
2.5657999999999994

>  <HBD>  (2) 
3

>  <HBA>  (2) 
5

>  <SMILES>  (2) 
[H]c1c([H])c([H])c(N([H])c2c([H])c([H])c(OC([H])([H])C(=O)N([H])c3nnc([H])n3[H])c([H])c2[H])c([H])c1[H]

$$$$
Z352550402_pose4
     RDKit          3D

 38 40  0  0  0  0  0  0  0  0999 V2000
    2.0431   40.7395   50.9129 O   0  0  0  0  0  0  0  0  0  0  0  0
    3.0658   41.3235   51.2682 C   0  0  0  0  0  0  0  0  0  0  0  0
    4.3060   41.4805   50.3791 C   0  0  0  0  0  0  0  0  0  0  0  0
    4.3631   42.6734   49.6149 O   0  0  0  0  0  0  0  0  0  0  0  0
    5.3410   43.5809   49.9074 C   0  0  0  0  0  0  0  0  0  0  0  0
    4.8740   44.8691   50.1728 C   0  0  0  0  0  0  0  0  0  0  0  0
    5.7631   45.9017   50.4899 C   0  0  0  0  0  0  0  0  0  0  0  0
    7.1426   45.6685   50.5538 C   0  0  0  0  0  0  0  0  0  0  0  0
    8.0031   46.7401   50.8399 N   0  0  0  0  0  0  0  0  0  0  0  0
    8.6426   47.1446   52.0244 C   0  0  0  0  0  0  0  0  0  0  0  0
   10.0124   47.4201   52.0973 C   0  0  0  0  0  0  0  0  0  0  0  0
   10.6127   47.7807   53.3077 C   0  0  0  0  0  0  0  0  0  0  0  0
    9.8495   47.8605   54.4687 C   0  0  0  0  0  0  0  0  0  0  0  0
    8.4870   47.5826   54.4197 C   0  0  0  0  0  0  0  0  0  0  0  0
    7.8908   47.2249   53.2067 C   0  0  0  0  0  0  0  0  0  0  0  0
    7.5997   44.3770   50.2771 C   0  0  0  0  0  0  0  0  0  0  0  0
    6.7106   43.3387   49.9598 C   0  0  0  0  0  0  0  0  0  0  0  0
    3.2207   41.9137   52.5085 N   0  0  0  0  0  0  0  0  0  0  0  0
    2.2350   41.8767   53.4588 C   0  0  0  0  0  0  0  0  0  0  0  0
    2.4126   41.6941   54.7464 N   0  0  0  0  0  0  0  0  0  0  0  0
    1.1730   41.7226   55.3508 N   0  0  0  0  0  0  0  0  0  0  0  0
    0.2765   41.9226   54.4110 C   0  0  0  0  0  0  0  0  0  0  0  0
    0.8976   42.0246   53.2086 N   0  0  0  0  0  0  0  0  0  0  0  0
    5.1938   41.4510   51.0278 H   0  0  0  0  0  0  0  0  0  0  0  0
    4.2609   40.6575   49.6506 H   0  0  0  0  0  0  0  0  0  0  0  0
    3.7942   45.0749   50.1321 H   0  0  0  0  0  0  0  0  0  0  0  0
    5.3735   46.9104   50.6916 H   0  0  0  0  0  0  0  0  0  0  0  0
    8.2303   47.3154   50.0372 H   0  0  0  0  0  0  0  0  0  0  0  0
   10.6272   47.3519   51.1877 H   0  0  0  0  0  0  0  0  0  0  0  0
   11.6898   48.0016   53.3422 H   0  0  0  0  0  0  0  0  0  0  0  0
   10.3216   48.1423   55.4215 H   0  0  0  0  0  0  0  0  0  0  0  0
    7.8795   47.6442   55.3346 H   0  0  0  0  0  0  0  0  0  0  0  0
    6.8138   47.0026   53.1786 H   0  0  0  0  0  0  0  0  0  0  0  0
    8.6796   44.1701   50.3088 H   0  0  0  0  0  0  0  0  0  0  0  0
    7.0974   42.3301   49.7519 H   0  0  0  0  0  0  0  0  0  0  0  0
    4.0654   42.4023   52.7744 H   0  0  0  0  0  0  0  0  0  0  0  0
   -0.8089   41.9960   54.5737 H   0  0  0  0  0  0  0  0  0  0  0  0
    0.4919   42.1785   52.2938 H   0  0  0  0  0  0  0  0  0  0  0  0
  1  2  2  0
  2  3  1  0
  3  4  1  0
  4  5  1  0
  5  6  2  0
  6  7  1  0
  7  8  2  0
  8  9  1  0
  9 10  1  0
 10 11  2  0
 11 12  1  0
 12 13  2  0
 13 14  1  0
 14 15  2  0
  8 16  1  0
 16 17  2  0
  2 18  1  0
 18 19  1  0
 19 20  2  0
 20 21  1  0
 21 22  2  0
 22 23  1  0
 17  5  1  0
 23 19  1  0
 15 10  1  0
  3 24  1  0
  3 25  1  0
  6 26  1  0
  7 27  1  0
  9 28  1  0
 11 29  1  0
 12 30  1  0
 13 31  1  0
 14 32  1  0
 15 33  1  0
 16 34  1  0
 17 35  1  0
 18 36  1  0
 22 37  1  0
 23 38  1  0
M  END
>  <meeko>  (3) 
{"is_sidechain": false}

>  <CID>  (3) 
Z352550402

>  <pose_index>  (3) 
4

>  <docking_score>  (3) 
-8.61

>  <rmsd_to_best_selected>  (3) 
1.0443933771241674

>  <MWT>  (3) 
309.3289999999997

>  <TPSA>  (3) 
91.93

>  <logP>  (3) 
2.5657999999999994

>  <HBD>  (3) 
3

>  <HBA>  (3) 
5

>  <SMILES>  (3) 
[H]c1c([H])c([H])c(N([H])c2c([H])c([H])c(OC([H])([H])C(=O)N([H])c3nnc([H])n3[H])c([H])c2[H])c([H])c1[H]

$$$$
Z352550402_pose7
     RDKit          3D

 38 40  0  0  0  0  0  0  0  0999 V2000
    3.3386   43.3750   51.6479 O   0  0  0  0  0  0  0  0  0  0  0  0
    2.8067   42.7247   52.5478 C   0  0  0  0  0  0  0  0  0  0  0  0
    2.7159   43.2049   54.0021 C   0  0  0  0  0  0  0  0  0  0  0  0
    3.9430   43.2404   54.7115 O   0  0  0  0  0  0  0  0  0  0  0  0
    4.8803   44.1597   54.3330 C   0  0  0  0  0  0  0  0  0  0  0  0
    6.1504   43.6293   54.1066 C   0  0  0  0  0  0  0  0  0  0  0  0
    7.2102   44.4530   53.7111 C   0  0  0  0  0  0  0  0  0  0  0  0
    7.0221   45.8281   53.5286 C   0  0  0  0  0  0  0  0  0  0  0  0
    8.1191   46.6257   53.1659 N   0  0  0  0  0  0  0  0  0  0  0  0
    8.7167   46.8975   51.9229 C   0  0  0  0  0  0  0  0  0  0  0  0
    8.3059   46.2923   50.7290 C   0  0  0  0  0  0  0  0  0  0  0  0
    8.9570   46.5627   49.5219 C   0  0  0  0  0  0  0  0  0  0  0  0
   10.0383   47.4387   49.4927 C   0  0  0  0  0  0  0  0  0  0  0  0
   10.4662   48.0455   50.6693 C   0  0  0  0  0  0  0  0  0  0  0  0
    9.8114   47.7736   51.8742 C   0  0  0  0  0  0  0  0  0  0  0  0
    5.7471   46.3504   53.7670 C   0  0  0  0  0  0  0  0  0  0  0  0
    4.6826   45.5264   54.1628 C   0  0  0  0  0  0  0  0  0  0  0  0
    2.2212   41.4885   52.3573 N   0  0  0  0  0  0  0  0  0  0  0  0
    2.2042   40.8729   51.1334 C   0  0  0  0  0  0  0  0  0  0  0  0
    1.7136   39.6819   50.8757 N   0  0  0  0  0  0  0  0  0  0  0  0
    1.8938   39.4355   49.5302 N   0  0  0  0  0  0  0  0  0  0  0  0
    2.4870   40.4851   49.0089 C   0  0  0  0  0  0  0  0  0  0  0  0
    2.7019   41.4115   49.9774 N   0  0  0  0  0  0  0  0  0  0  0  0
    2.2977   44.2223   53.9974 H   0  0  0  0  0  0  0  0  0  0  0  0
    2.0869   42.4688   54.5241 H   0  0  0  0  0  0  0  0  0  0  0  0
    6.3209   42.5509   54.2405 H   0  0  0  0  0  0  0  0  0  0  0  0
    8.2044   44.0141   53.5414 H   0  0  0  0  0  0  0  0  0  0  0  0
    8.5454   47.1220   53.9398 H   0  0  0  0  0  0  0  0  0  0  0  0
    7.4571   45.5928   50.7411 H   0  0  0  0  0  0  0  0  0  0  0  0
    8.6143   46.0823   48.5936 H   0  0  0  0  0  0  0  0  0  0  0  0
   10.5522   47.6504   48.5435 H   0  0  0  0  0  0  0  0  0  0  0  0
   11.3197   48.7391   50.6515 H   0  0  0  0  0  0  0  0  0  0  0  0
   10.1604   48.2548   52.7998 H   0  0  0  0  0  0  0  0  0  0  0  0
    5.5750   47.4296   53.6416 H   0  0  0  0  0  0  0  0  0  0  0  0
    3.6883   45.9625   54.3393 H   0  0  0  0  0  0  0  0  0  0  0  0
    1.7750   40.9772   53.1082 H   0  0  0  0  0  0  0  0  0  0  0  0
    2.7664   40.5961   47.9508 H   0  0  0  0  0  0  0  0  0  0  0  0
    3.1353   42.3231   49.9010 H   0  0  0  0  0  0  0  0  0  0  0  0
  1  2  2  0
  2  3  1  0
  3  4  1  0
  4  5  1  0
  5  6  2  0
  6  7  1  0
  7  8  2  0
  8  9  1  0
  9 10  1  0
 10 11  2  0
 11 12  1  0
 12 13  2  0
 13 14  1  0
 14 15  2  0
  8 16  1  0
 16 17  2  0
  2 18  1  0
 18 19  1  0
 19 20  2  0
 20 21  1  0
 21 22  2  0
 22 23  1  0
 17  5  1  0
 23 19  1  0
 15 10  1  0
  3 24  1  0
  3 25  1  0
  6 26  1  0
  7 27  1  0
  9 28  1  0
 11 29  1  0
 12 30  1  0
 13 31  1  0
 14 32  1  0
 15 33  1  0
 16 34  1  0
 17 35  1  0
 18 36  1  0
 22 37  1  0
 23 38  1  0
M  END
>  <meeko>  (4) 
{"is_sidechain": false}

>  <CID>  (4) 
Z352550402

>  <pose_index>  (4) 
7

>  <docking_score>  (4) 
-8.427

>  <rmsd_to_best_selected>  (4) 
1.6972255584306641

>  <MWT>  (4) 
309.3289999999997

>  <TPSA>  (4) 
91.93

>  <logP>  (4) 
2.5657999999999994

>  <HBD>  (4) 
3

>  <HBA>  (4) 
5

>  <SMILES>  (4) 
[H]c1c([H])c([H])c(N([H])c2c([H])c([H])c(OC([H])([H])C(=O)N([H])c3nnc([H])n3[H])c([H])c2[H])c([H])c1[H]

$$$$
Z352550402_pose8
     RDKit          3D

 38 40  0  0  0  0  0  0  0  0999 V2000
    3.2579   43.2645   51.3924 O   0  0  0  0  0  0  0  0  0  0  0  0
    2.6500   42.8363   52.3725 C   0  0  0  0  0  0  0  0  0  0  0  0
    2.6828   43.5063   53.7521 C   0  0  0  0  0  0  0  0  0  0  0  0
    3.8917   43.3550   54.4762 O   0  0  0  0  0  0  0  0  0  0  0  0
    4.9634   44.1217   54.1104 C   0  0  0  0  0  0  0  0  0  0  0  0
    6.1739   43.4319   54.0528 C   0  0  0  0  0  0  0  0  0  0  0  0
    7.3540   44.0880   53.6883 C   0  0  0  0  0  0  0  0  0  0  0  0
    7.3507   45.4519   53.3711 C   0  0  0  0  0  0  0  0  0  0  0  0
    8.5634   46.0805   53.0472 N   0  0  0  0  0  0  0  0  0  0  0  0
    8.9766   46.8038   51.9146 C   0  0  0  0  0  0  0  0  0  0  0  0
    8.8824   46.3015   50.6115 C   0  0  0  0  0  0  0  0  0  0  0  0
    9.3425   47.0409   49.5178 C   0  0  0  0  0  0  0  0  0  0  0  0
    9.9160   48.2952   49.7148 C   0  0  0  0  0  0  0  0  0  0  0  0
   10.0241   48.8089   51.0025 C   0  0  0  0  0  0  0  0  0  0  0  0
    9.5602   48.0664   52.0935 C   0  0  0  0  0  0  0  0  0  0  0  0
    6.1330   46.1352   53.4421 C   0  0  0  0  0  0  0  0  0  0  0  0
    4.9471   45.4798   53.8050 C   0  0  0  0  0  0  0  0  0  0  0  0
    1.8583   41.7030   52.3499 N   0  0  0  0  0  0  0  0  0  0  0  0
    1.7023   40.9488   51.2174 C   0  0  0  0  0  0  0  0  0  0  0  0
    0.5593   40.5618   50.7004 N   0  0  0  0  0  0  0  0  0  0  0  0
    0.8381   39.8232   49.5683 N   0  0  0  0  0  0  0  0  0  0  0  0
    2.1443   39.7829   49.4297 C   0  0  0  0  0  0  0  0  0  0  0  0
    2.7268   40.4764   50.4419 N   0  0  0  0  0  0  0  0  0  0  0  0
    2.5054   44.5826   53.6103 H   0  0  0  0  0  0  0  0  0  0  0  0
    1.9082   43.0038   54.3500 H   0  0  0  0  0  0  0  0  0  0  0  0
    6.2009   42.3596   54.2967 H   0  0  0  0  0  0  0  0  0  0  0  0
    8.2981   43.5248   53.6504 H   0  0  0  0  0  0  0  0  0  0  0  0
    9.2655   46.0298   53.7760 H   0  0  0  0  0  0  0  0  0  0  0  0
    8.4390   45.3087   50.4452 H   0  0  0  0  0  0  0  0  0  0  0  0
    9.2515   46.6320   48.5007 H   0  0  0  0  0  0  0  0  0  0  0  0
   10.2816   48.8766   48.8556 H   0  0  0  0  0  0  0  0  0  0  0  0
   10.4747   49.7995   51.1633 H   0  0  0  0  0  0  0  0  0  0  0  0
    9.6548   48.4797   53.1085 H   0  0  0  0  0  0  0  0  0  0  0  0
    6.1043   47.2097   53.2084 H   0  0  0  0  0  0  0  0  0  0  0  0
    4.0017   46.0405   53.8484 H   0  0  0  0  0  0  0  0  0  0  0  0
    1.3546   41.3772   53.1639 H   0  0  0  0  0  0  0  0  0  0  0  0
    2.6821   39.2677   48.6202 H   0  0  0  0  0  0  0  0  0  0  0  0
    3.7114   40.6334   50.6210 H   0  0  0  0  0  0  0  0  0  0  0  0
  1  2  2  0
  2  3  1  0
  3  4  1  0
  4  5  1  0
  5  6  2  0
  6  7  1  0
  7  8  2  0
  8  9  1  0
  9 10  1  0
 10 11  2  0
 11 12  1  0
 12 13  2  0
 13 14  1  0
 14 15  2  0
  8 16  1  0
 16 17  2  0
  2 18  1  0
 18 19  1  0
 19 20  2  0
 20 21  1  0
 21 22  2  0
 22 23  1  0
 17  5  1  0
 23 19  1  0
 15 10  1  0
  3 24  1  0
  3 25  1  0
  6 26  1  0
  7 27  1  0
  9 28  1  0
 11 29  1  0
 12 30  1  0
 13 31  1  0
 14 32  1  0
 15 33  1  0
 16 34  1  0
 17 35  1  0
 18 36  1  0
 22 37  1  0
 23 38  1  0
M  END
>  <meeko>  (5) 
{"is_sidechain": false}

>  <CID>  (5) 
Z352550402

>  <pose_index>  (5) 
8

>  <docking_score>  (5) 
-8.405

>  <rmsd_to_best_selected>  (5) 
1.6005985729141885

>  <MWT>  (5) 
309.3289999999997

>  <TPSA>  (5) 
91.93

>  <logP>  (5) 
2.5657999999999994

>  <HBD>  (5) 
3

>  <HBA>  (5) 
5

>  <SMILES>  (5) 
[H]c1c([H])c([H])c(N([H])c2c([H])c([H])c(OC([H])([H])C(=O)N([H])c3nnc([H])n3[H])c([H])c2[H])c([H])c1[H]

$$$$
Z352550402_pose10
     RDKit          3D

 38 40  0  0  0  0  0  0  0  0999 V2000
    1.8684   41.2741   53.4832 O   0  0  0  0  0  0  0  0  0  0  0  0
    2.4363   42.2711   53.0401 C   0  0  0  0  0  0  0  0  0  0  0  0
    3.0735   43.3492   53.9252 C   0  0  0  0  0  0  0  0  0  0  0  0
    4.2880   42.9811   54.5575 O   0  0  0  0  0  0  0  0  0  0  0  0
    5.4415   43.5821   54.1381 C   0  0  0  0  0  0  0  0  0  0  0  0
    5.3934   44.0811   52.8352 C   0  0  0  0  0  0  0  0  0  0  0  0
    6.5019   44.7242   52.2747 C   0  0  0  0  0  0  0  0  0  0  0  0
    7.6850   44.8864   53.0044 C   0  0  0  0  0  0  0  0  0  0  0  0
    8.7861   45.5057   52.3913 N   0  0  0  0  0  0  0  0  0  0  0  0
    8.9132   46.7099   51.6790 C   0  0  0  0  0  0  0  0  0  0  0  0
    8.4758   46.8664   50.3588 C   0  0  0  0  0  0  0  0  0  0  0  0
    8.6603   48.0718   49.6750 C   0  0  0  0  0  0  0  0  0  0  0  0
    9.2969   49.1400   50.3024 C   0  0  0  0  0  0  0  0  0  0  0  0
    9.7459   49.0021   51.6117 C   0  0  0  0  0  0  0  0  0  0  0  0
    9.5571   47.7952   52.2925 C   0  0  0  0  0  0  0  0  0  0  0  0
    7.7254   44.3740   54.3047 C   0  0  0  0  0  0  0  0  0  0  0  0
    6.6151   43.7305   54.8713 C   0  0  0  0  0  0  0  0  0  0  0  0
    2.5749   42.5385   51.6907 N   0  0  0  0  0  0  0  0  0  0  0  0
    2.0651   41.7064   50.7294 C   0  0  0  0  0  0  0  0  0  0  0  0
    1.7620   42.0472   49.4980 N   0  0  0  0  0  0  0  0  0  0  0  0
    1.2790   40.9239   48.8579 N   0  0  0  0  0  0  0  0  0  0  0  0
    1.3044   39.9322   49.7191 C   0  0  0  0  0  0  0  0  0  0  0  0
    1.7901   40.3777   50.9065 N   0  0  0  0  0  0  0  0  0  0  0  0
    3.2721   44.2298   53.2967 H   0  0  0  0  0  0  0  0  0  0  0  0
    2.3553   43.5363   54.7371 H   0  0  0  0  0  0  0  0  0  0  0  0
    4.4736   43.9673   52.2428 H   0  0  0  0  0  0  0  0  0  0  0  0
    6.4429   45.1080   51.2455 H   0  0  0  0  0  0  0  0  0  0  0  0
    9.6604   45.0054   52.5084 H   0  0  0  0  0  0  0  0  0  0  0  0
    7.9785   46.0270   49.8507 H   0  0  0  0  0  0  0  0  0  0  0  0
    8.3022   48.1767   48.6402 H   0  0  0  0  0  0  0  0  0  0  0  0
    9.4440   50.0884   49.7649 H   0  0  0  0  0  0  0  0  0  0  0  0
   10.2495   49.8426   52.1118 H   0  0  0  0  0  0  0  0  0  0  0  0
    9.9195   47.6950   53.3263 H   0  0  0  0  0  0  0  0  0  0  0  0
    8.6472   44.4778   54.8959 H   0  0  0  0  0  0  0  0  0  0  0  0
    6.6723   43.3417   55.8987 H   0  0  0  0  0  0  0  0  0  0  0  0
    3.0596   43.3570   51.3469 H   0  0  0  0  0  0  0  0  0  0  0  0
    0.9823   38.9012   49.5108 H   0  0  0  0  0  0  0  0  0  0  0  0
    1.9338   39.8645   51.7677 H   0  0  0  0  0  0  0  0  0  0  0  0
  1  2  2  0
  2  3  1  0
  3  4  1  0
  4  5  1  0
  5  6  2  0
  6  7  1  0
  7  8  2  0
  8  9  1  0
  9 10  1  0
 10 11  2  0
 11 12  1  0
 12 13  2  0
 13 14  1  0
 14 15  2  0
  8 16  1  0
 16 17  2  0
  2 18  1  0
 18 19  1  0
 19 20  2  0
 20 21  1  0
 21 22  2  0
 22 23  1  0
 17  5  1  0
 23 19  1  0
 15 10  1  0
  3 24  1  0
  3 25  1  0
  6 26  1  0
  7 27  1  0
  9 28  1  0
 11 29  1  0
 12 30  1  0
 13 31  1  0
 14 32  1  0
 15 33  1  0
 16 34  1  0
 17 35  1  0
 18 36  1  0
 22 37  1  0
 23 38  1  0
M  END
>  <meeko>  (6) 
{"is_sidechain": false}

>  <CID>  (6) 
Z352550402

>  <pose_index>  (6) 
10

>  <docking_score>  (6) 
-8.014

>  <rmsd_to_best_selected>  (6) 
0.9920787330432764

>  <MWT>  (6) 
309.3289999999997

>  <TPSA>  (6) 
91.93

>  <logP>  (6) 
2.5657999999999994

>  <HBD>  (6) 
3

>  <HBA>  (6) 
5

>  <SMILES>  (6) 
[H]c1c([H])c([H])c(N([H])c2c([H])c([H])c(OC([H])([H])C(=O)N([H])c3nnc([H])n3[H])c([H])c2[H])c([H])c1[H]

$$$$
