Z357964720_pose1
     RDKit          3D

 43 46  0  0  0  0  0  0  0  0999 V2000
   -0.4480   42.0300   53.4420 N   0  0  0  0  0  0  0  0  0  0  0  0
   -1.0540   43.5420   53.8700 S   0  0  0  0  0  0  0  0  0  0  0  0
   -1.5700   43.4540   55.2140 O   0  0  0  0  0  0  0  0  0  0  0  0
   -1.8650   43.9610   52.7490 O   0  0  0  0  0  0  0  0  0  0  0  0
    0.4240   44.5200   53.8950 C   0  0  0  0  0  0  0  0  0  0  0  0
    0.7750   45.2880   52.7880 C   0  0  0  0  0  0  0  0  0  0  0  0
    1.9480   46.0490   52.8270 C   0  0  0  0  0  0  0  0  0  0  0  0
    2.7770   46.0660   53.9630 C   0  0  0  0  0  0  0  0  0  0  0  0
    3.9500   46.8260   53.9190 N   0  0  0  0  0  0  0  0  0  0  0  0
    5.2380   46.5870   53.4500 C   0  0  0  0  0  0  0  0  0  0  0  0
    5.4690   45.8250   52.3810 N   0  0  0  0  0  0  0  0  0  0  0  0
    6.7510   45.6460   51.9930 C   0  0  0  0  0  0  0  0  0  0  0  0
    6.8920   44.7630   50.8250 C   0  0  0  0  0  0  0  0  0  0  0  0
    5.9430   43.7590   50.5720 C   0  0  0  0  0  0  0  0  0  0  0  0
    6.0680   42.9150   49.4670 C   0  0  0  0  0  0  0  0  0  0  0  0
    7.1520   43.0550   48.6020 C   0  0  0  0  0  0  0  0  0  0  0  0
    8.1120   44.0350   48.8450 C   0  0  0  0  0  0  0  0  0  0  0  0
    7.9850   44.8800   49.9510 C   0  0  0  0  0  0  0  0  0  0  0  0
    7.8340   46.2470   52.6480 C   0  0  0  0  0  0  0  0  0  0  0  0
    9.1990   46.1370   52.2750 C   0  0  0  0  0  0  0  0  0  0  0  0
   10.1910   46.7840   53.0070 C   0  0  0  0  0  0  0  0  0  0  0  0
    9.8350   47.5470   54.1090 C   0  0  0  0  0  0  0  0  0  0  0  0
    8.4880   47.6610   54.4660 C   0  0  0  0  0  0  0  0  0  0  0  0
    7.4790   47.0260   53.7510 C   0  0  0  0  0  0  0  0  0  0  0  0
    6.2110   47.1910   54.1470 N   0  0  0  0  0  0  0  0  0  0  0  0
    2.3930   45.2870   55.0630 C   0  0  0  0  0  0  0  0  0  0  0  0
    1.2210   44.5220   55.0390 C   0  0  0  0  0  0  0  0  0  0  0  0
   -1.1340   41.3180   53.6940 H   0  0  0  0  0  0  0  0  0  0  0  0
   -0.1770   41.9680   52.4610 H   0  0  0  0  0  0  0  0  0  0  0  0
    0.1366   45.2962   51.8922 H   0  0  0  0  0  0  0  0  0  0  0  0
    2.2287   46.6483   51.9484 H   0  0  0  0  0  0  0  0  0  0  0  0
    3.9370   47.7220   54.3840 H   0  0  0  0  0  0  0  0  0  0  0  0
    5.0890   43.6359   51.2543 H   0  0  0  0  0  0  0  0  0  0  0  0
    5.3110   42.1394   49.2789 H   0  0  0  0  0  0  0  0  0  0  0  0
    7.2493   42.3929   47.7290 H   0  0  0  0  0  0  0  0  0  0  0  0
    8.9705   44.1438   48.1659 H   0  0  0  0  0  0  0  0  0  0  0  0
    8.7511   45.6466   50.1393 H   0  0  0  0  0  0  0  0  0  0  0  0
    9.4762   45.5339   51.3979 H   0  0  0  0  0  0  0  0  0  0  0  0
   11.2472   46.6909   52.7140 H   0  0  0  0  0  0  0  0  0  0  0  0
   10.6086   48.0600   54.6993 H   0  0  0  0  0  0  0  0  0  0  0  0
    8.2182   48.2722   55.3399 H   0  0  0  0  0  0  0  0  0  0  0  0
    3.0252   45.2766   55.9631 H   0  0  0  0  0  0  0  0  0  0  0  0
    0.9307   43.9263   55.9170 H   0  0  0  0  0  0  0  0  0  0  0  0
  1  2  1  0
  2  3  2  0
  2  4  2  0
  2  5  1  0
  5  6  2  0
  6  7  1  0
  7  8  2  0
  8  9  1  0
  9 10  1  0
 10 11  2  0
 11 12  1  0
 12 13  1  0
 13 14  2  0
 14 15  1  0
 15 16  2  0
 16 17  1  0
 17 18  2  0
 12 19  2  0
 19 20  1  0
 20 21  2  0
 21 22  1  0
 22 23  2  0
 23 24  1  0
 24 25  2  0
  8 26  1  0
 26 27  2  0
 27  5  1  0
 25 10  1  0
 18 13  1  0
 24 19  1  0
  1 28  1  0
  1 29  1  0
  6 30  1  0
  7 31  1  0
  9 32  1  0
 14 33  1  0
 15 34  1  0
 16 35  1  0
 17 36  1  0
 18 37  1  0
 20 38  1  0
 21 39  1  0
 22 40  1  0
 23 41  1  0
 26 42  1  0
 27 43  1  0
M  END
>  <meeko>  (1) 
{"is_sidechain": false}

>  <CID>  (1) 
Z357964720

>  <pose_index>  (1) 
1

>  <docking_score>  (1) 
-10.455

>  <rmsd_to_best_selected>  (1) 
0.0

>  <MWT>  (1) 
376.44099999999986

>  <TPSA>  (1) 
97.97

>  <logP>  (1) 
3.687800000000002

>  <HBD>  (1) 
2

>  <HBA>  (1) 
5

>  <SMILES>  (1) 
[H]c1c([H])c([H])c(-c2nc(N([H])c3c([H])c([H])c(S(=O)(=O)N([H])[H])c([H])c3[H])nc3c([H])c([H])c([H])c([H])c23)c([H])c1[H]

$$$$
Z357964720_pose2
     RDKit          3D

 43 46  0  0  0  0  0  0  0  0999 V2000
   -0.8805   42.3142   53.2244 N   0  0  0  0  0  0  0  0  0  0  0  0
   -1.2886   43.9353   53.4372 S   0  0  0  0  0  0  0  0  0  0  0  0
   -2.0326   44.0521   54.6671 O   0  0  0  0  0  0  0  0  0  0  0  0
   -1.8144   44.3673   52.1620 O   0  0  0  0  0  0  0  0  0  0  0  0
    0.3068   44.6720   53.6694 C   0  0  0  0  0  0  0  0  0  0  0  0
    0.9338   44.6063   54.9113 C   0  0  0  0  0  0  0  0  0  0  0  0
    2.1905   45.1997   55.0745 C   0  0  0  0  0  0  0  0  0  0  0  0
    2.8417   45.8505   54.0110 C   0  0  0  0  0  0  0  0  0  0  0  0
    4.0824   46.4466   54.2566 N   0  0  0  0  0  0  0  0  0  0  0  0
    5.3458   46.3149   53.6887 C   0  0  0  0  0  0  0  0  0  0  0  0
    5.5509   45.5998   52.5823 N   0  0  0  0  0  0  0  0  0  0  0  0
    6.8084   45.5260   52.0973 C   0  0  0  0  0  0  0  0  0  0  0  0
    6.9249   44.6850   50.8956 C   0  0  0  0  0  0  0  0  0  0  0  0
    7.2736   43.3293   51.0063 C   0  0  0  0  0  0  0  0  0  0  0  0
    7.3883   42.5225   49.8719 C   0  0  0  0  0  0  0  0  0  0  0  0
    7.1657   43.0633   48.6076 C   0  0  0  0  0  0  0  0  0  0  0  0
    6.8346   44.4105   48.4761 C   0  0  0  0  0  0  0  0  0  0  0  0
    6.7185   45.2157   49.6116 C   0  0  0  0  0  0  0  0  0  0  0  0
    7.8913   46.1890   52.6889 C   0  0  0  0  0  0  0  0  0  0  0  0
    9.2296   46.1897   52.2146 C   0  0  0  0  0  0  0  0  0  0  0  0
   10.2241   46.8904   52.8908 C   0  0  0  0  0  0  0  0  0  0  0  0
    9.8973   47.5975   54.0393 C   0  0  0  0  0  0  0  0  0  0  0  0
    8.5770   47.6019   54.4974 C   0  0  0  0  0  0  0  0  0  0  0  0
    7.5648   46.9116   53.8378 C   0  0  0  0  0  0  0  0  0  0  0  0
    6.3221   46.9731   54.3299 N   0  0  0  0  0  0  0  0  0  0  0  0
    2.1861   45.8941   52.7735 C   0  0  0  0  0  0  0  0  0  0  0  0
    0.9293   45.3045   52.5947 C   0  0  0  0  0  0  0  0  0  0  0  0
    0.0471   42.1547   53.6198 H   0  0  0  0  0  0  0  0  0  0  0  0
   -1.5739   41.6721   53.6060 H   0  0  0  0  0  0  0  0  0  0  0  0
    0.4468   44.0939   55.7541 H   0  0  0  0  0  0  0  0  0  0  0  0
    2.6810   45.1561   56.0581 H   0  0  0  0  0  0  0  0  0  0  0  0
    4.1514   47.0539   55.0606 H   0  0  0  0  0  0  0  0  0  0  0  0
    7.4589   42.8964   52.0005 H   0  0  0  0  0  0  0  0  0  0  0  0
    7.6545   41.4604   49.9768 H   0  0  0  0  0  0  0  0  0  0  0  0
    7.2512   42.4276   47.7139 H   0  0  0  0  0  0  0  0  0  0  0  0
    6.6645   44.8400   47.4778 H   0  0  0  0  0  0  0  0  0  0  0  0
    6.4622   46.2794   49.4987 H   0  0  0  0  0  0  0  0  0  0  0  0
    9.4834   45.6300   51.3022 H   0  0  0  0  0  0  0  0  0  0  0  0
   11.2591   46.8839   52.5184 H   0  0  0  0  0  0  0  0  0  0  0  0
   10.6739   48.1518   54.5865 H   0  0  0  0  0  0  0  0  0  0  0  0
    8.3303   48.1686   55.4074 H   0  0  0  0  0  0  0  0  0  0  0  0
    2.6687   46.4019   51.9255 H   0  0  0  0  0  0  0  0  0  0  0  0
    0.4360   45.3402   51.6122 H   0  0  0  0  0  0  0  0  0  0  0  0
  1  2  1  0
  2  3  2  0
  2  4  2  0
  2  5  1  0
  5  6  2  0
  6  7  1  0
  7  8  2  0
  8  9  1  0
  9 10  1  0
 10 11  2  0
 11 12  1  0
 12 13  1  0
 13 14  2  0
 14 15  1  0
 15 16  2  0
 16 17  1  0
 17 18  2  0
 12 19  2  0
 19 20  1  0
 20 21  2  0
 21 22  1  0
 22 23  2  0
 23 24  1  0
 24 25  2  0
  8 26  1  0
 26 27  2  0
 27  5  1  0
 25 10  1  0
 18 13  1  0
 24 19  1  0
  1 28  1  0
  1 29  1  0
  6 30  1  0
  7 31  1  0
  9 32  1  0
 14 33  1  0
 15 34  1  0
 16 35  1  0
 17 36  1  0
 18 37  1  0
 20 38  1  0
 21 39  1  0
 22 40  1  0
 23 41  1  0
 26 42  1  0
 27 43  1  0
M  END
>  <meeko>  (2) 
{"is_sidechain": false}

>  <CID>  (2) 
Z357964720

>  <pose_index>  (2) 
2

>  <docking_score>  (2) 
-9.724

>  <rmsd_to_best_selected>  (2) 
0.969533946185782

>  <MWT>  (2) 
376.44099999999986

>  <TPSA>  (2) 
97.97

>  <logP>  (2) 
3.687800000000002

>  <HBD>  (2) 
2

>  <HBA>  (2) 
5

>  <SMILES>  (2) 
[H]c1c([H])c([H])c(-c2nc(N([H])c3c([H])c([H])c(S(=O)(=O)N([H])[H])c([H])c3[H])nc3c([H])c([H])c([H])c([H])c23)c([H])c1[H]

$$$$
Z357964720_pose3
     RDKit          3D

 43 46  0  0  0  0  0  0  0  0999 V2000
   -2.1686   44.4146   54.0386 N   0  0  0  0  0  0  0  0  0  0  0  0
   -1.0483   43.2650   53.5268 S   0  0  0  0  0  0  0  0  0  0  0  0
   -1.2808   43.0062   52.1264 O   0  0  0  0  0  0  0  0  0  0  0  0
   -1.0827   42.2247   54.5284 O   0  0  0  0  0  0  0  0  0  0  0  0
    0.4733   44.1584   53.6916 C   0  0  0  0  0  0  0  0  0  0  0  0
    0.7661   44.8288   54.8757 C   0  0  0  0  0  0  0  0  0  0  0  0
    1.9718   45.5330   54.9833 C   0  0  0  0  0  0  0  0  0  0  0  0
    2.8988   45.5694   53.9264 C   0  0  0  0  0  0  0  0  0  0  0  0
    4.0686   46.3175   54.0945 N   0  0  0  0  0  0  0  0  0  0  0  0
    5.3603   46.2180   53.5858 C   0  0  0  0  0  0  0  0  0  0  0  0
    5.6209   45.5865   52.4407 N   0  0  0  0  0  0  0  0  0  0  0  0
    6.9024   45.5379   52.0204 C   0  0  0  0  0  0  0  0  0  0  0  0
    7.0802   44.7910   50.7651 C   0  0  0  0  0  0  0  0  0  0  0  0
    6.1840   44.9678   49.6987 C   0  0  0  0  0  0  0  0  0  0  0  0
    6.3423   44.2626   48.5033 C   0  0  0  0  0  0  0  0  0  0  0  0
    7.3943   43.3611   48.3603 C   0  0  0  0  0  0  0  0  0  0  0  0
    8.2840   43.1594   49.4128 C   0  0  0  0  0  0  0  0  0  0  0  0
    8.1264   43.8668   50.6081 C   0  0  0  0  0  0  0  0  0  0  0  0
    7.9568   46.1425   52.7186 C   0  0  0  0  0  0  0  0  0  0  0  0
    9.3180   46.1656   52.3183 C   0  0  0  0  0  0  0  0  0  0  0  0
   10.2789   46.8022   53.1001 C   0  0  0  0  0  0  0  0  0  0  0  0
    9.8937   47.4226   54.2799 C   0  0  0  0  0  0  0  0  0  0  0  0
    8.5497   47.4058   54.6646 C   0  0  0  0  0  0  0  0  0  0  0  0
    7.5714   46.7789   53.9011 C   0  0  0  0  0  0  0  0  0  0  0  0
    6.3039   46.8143   54.3286 N   0  0  0  0  0  0  0  0  0  0  0  0
    2.5755   44.8795   52.7505 C   0  0  0  0  0  0  0  0  0  0  0  0
    1.3755   44.1698   52.6282 C   0  0  0  0  0  0  0  0  0  0  0  0
   -2.7092   44.7282   53.2308 H   0  0  0  0  0  0  0  0  0  0  0  0
   -2.7680   44.0835   54.7935 H   0  0  0  0  0  0  0  0  0  0  0  0
    0.0584   44.8057   55.7175 H   0  0  0  0  0  0  0  0  0  0  0  0
    2.1989   46.0700   55.9161 H   0  0  0  0  0  0  0  0  0  0  0  0
    4.0486   47.0566   54.7820 H   0  0  0  0  0  0  0  0  0  0  0  0
    5.3455   45.6717   49.8061 H   0  0  0  0  0  0  0  0  0  0  0  0
    5.6359   44.4194   47.6748 H   0  0  0  0  0  0  0  0  0  0  0  0
    7.5224   42.8091   47.4174 H   0  0  0  0  0  0  0  0  0  0  0  0
    9.1114   42.4429   49.3033 H   0  0  0  0  0  0  0  0  0  0  0  0
    8.8304   43.6976   51.4361 H   0  0  0  0  0  0  0  0  0  0  0  0
    9.6176   45.6755   51.3802 H   0  0  0  0  0  0  0  0  0  0  0  0
   11.3329   46.8129   52.7854 H   0  0  0  0  0  0  0  0  0  0  0  0
   10.6424   47.9254   54.9097 H   0  0  0  0  0  0  0  0  0  0  0  0
    8.2572   47.9041   55.6005 H   0  0  0  0  0  0  0  0  0  0  0  0
    3.2797   44.8961   51.9057 H   0  0  0  0  0  0  0  0  0  0  0  0
    1.1457   43.6252   51.7005 H   0  0  0  0  0  0  0  0  0  0  0  0
  1  2  1  0
  2  3  2  0
  2  4  2  0
  2  5  1  0
  5  6  2  0
  6  7  1  0
  7  8  2  0
  8  9  1  0
  9 10  1  0
 10 11  2  0
 11 12  1  0
 12 13  1  0
 13 14  2  0
 14 15  1  0
 15 16  2  0
 16 17  1  0
 17 18  2  0
 12 19  2  0
 19 20  1  0
 20 21  2  0
 21 22  1  0
 22 23  2  0
 23 24  1  0
 24 25  2  0
  8 26  1  0
 26 27  2  0
 27  5  1  0
 25 10  1  0
 18 13  1  0
 24 19  1  0
  1 28  1  0
  1 29  1  0
  6 30  1  0
  7 31  1  0
  9 32  1  0
 14 33  1  0
 15 34  1  0
 16 35  1  0
 17 36  1  0
 18 37  1  0
 20 38  1  0
 21 39  1  0
 22 40  1  0
 23 41  1  0
 26 42  1  0
 27 43  1  0
M  END
>  <meeko>  (3) 
{"is_sidechain": false}

>  <CID>  (3) 
Z357964720

>  <pose_index>  (3) 
3

>  <docking_score>  (3) 
-9.563

>  <rmsd_to_best_selected>  (3) 
1.3932410791823713

>  <MWT>  (3) 
376.44099999999986

>  <TPSA>  (3) 
97.97

>  <logP>  (3) 
3.687800000000002

>  <HBD>  (3) 
2

>  <HBA>  (3) 
5

>  <SMILES>  (3) 
[H]c1c([H])c([H])c(-c2nc(N([H])c3c([H])c([H])c(S(=O)(=O)N([H])[H])c([H])c3[H])nc3c([H])c([H])c([H])c([H])c23)c([H])c1[H]

$$$$
Z357964720_pose4
     RDKit          3D

 43 46  0  0  0  0  0  0  0  0999 V2000
   -1.9415   43.5065   53.7867 N   0  0  0  0  0  0  0  0  0  0  0  0
   -1.4373   44.9671   53.1177 S   0  0  0  0  0  0  0  0  0  0  0  0
   -2.0957   46.0365   53.8284 O   0  0  0  0  0  0  0  0  0  0  0  0
   -1.5543   44.7939   51.6875 O   0  0  0  0  0  0  0  0  0  0  0  0
    0.2817   44.9778   53.5473 C   0  0  0  0  0  0  0  0  0  0  0  0
    0.6751   45.2468   54.8558 C   0  0  0  0  0  0  0  0  0  0  0  0
    2.0376   45.2544   55.1732 C   0  0  0  0  0  0  0  0  0  0  0  0
    3.0210   44.9856   54.2036 C   0  0  0  0  0  0  0  0  0  0  0  0
    4.3644   45.0410   54.5867 N   0  0  0  0  0  0  0  0  0  0  0  0
    5.5482   45.3332   53.9161 C   0  0  0  0  0  0  0  0  0  0  0  0
    5.8232   44.8217   52.7152 N   0  0  0  0  0  0  0  0  0  0  0  0
    6.9949   45.1588   52.1345 C   0  0  0  0  0  0  0  0  0  0  0  0
    7.2088   44.5140   50.8294 C   0  0  0  0  0  0  0  0  0  0  0  0
    6.2292   43.6694   50.2830 C   0  0  0  0  0  0  0  0  0  0  0  0
    6.4232   43.0526   49.0451 C   0  0  0  0  0  0  0  0  0  0  0  0
    7.6054   43.2628   48.3398 C   0  0  0  0  0  0  0  0  0  0  0  0
    8.5966   44.0831   48.8731 C   0  0  0  0  0  0  0  0  0  0  0  0
    8.4010   44.7023   50.1104 C   0  0  0  0  0  0  0  0  0  0  0  0
    7.9121   46.0377   52.7264 C   0  0  0  0  0  0  0  0  0  0  0  0
    9.1406   46.4666   52.1607 C   0  0  0  0  0  0  0  0  0  0  0  0
    9.9723   47.3471   52.8479 C   0  0  0  0  0  0  0  0  0  0  0  0
    9.5878   47.8096   54.0985 C   0  0  0  0  0  0  0  0  0  0  0  0
    8.3724   47.3920   54.6468 C   0  0  0  0  0  0  0  0  0  0  0  0
    7.5225   46.5154   53.9799 C   0  0  0  0  0  0  0  0  0  0  0  0
    6.3706   46.1706   54.5649 N   0  0  0  0  0  0  0  0  0  0  0  0
    2.5922   44.7136   52.8977 C   0  0  0  0  0  0  0  0  0  0  0  0
    1.2317   44.7007   52.5657 C   0  0  0  0  0  0  0  0  0  0  0  0
   -2.0334   43.6219   54.7968 H   0  0  0  0  0  0  0  0  0  0  0  0
   -2.7956   43.1439   53.3653 H   0  0  0  0  0  0  0  0  0  0  0  0
   -0.0775   45.4511   55.6316 H   0  0  0  0  0  0  0  0  0  0  0  0
    2.3473   45.4758   56.2052 H   0  0  0  0  0  0  0  0  0  0  0  0
    4.5904   44.7369   55.5224 H   0  0  0  0  0  0  0  0  0  0  0  0
    5.2961   43.4911   50.8376 H   0  0  0  0  0  0  0  0  0  0  0  0
    5.6421   42.4007   48.6271 H   0  0  0  0  0  0  0  0  0  0  0  0
    7.7562   42.7815   47.3622 H   0  0  0  0  0  0  0  0  0  0  0  0
    9.5338   44.2435   48.3202 H   0  0  0  0  0  0  0  0  0  0  0  0
    9.1904   45.3454   50.5267 H   0  0  0  0  0  0  0  0  0  0  0  0
    9.4395   46.0994   51.1679 H   0  0  0  0  0  0  0  0  0  0  0  0
   10.9245   47.6727   52.4038 H   0  0  0  0  0  0  0  0  0  0  0  0
   10.2366   48.5017   54.6553 H   0  0  0  0  0  0  0  0  0  0  0  0
    8.0780   47.7685   55.6376 H   0  0  0  0  0  0  0  0  0  0  0  0
    3.3393   44.5060   52.1174 H   0  0  0  0  0  0  0  0  0  0  0  0
    0.9150   44.4733   51.5371 H   0  0  0  0  0  0  0  0  0  0  0  0
  1  2  1  0
  2  3  2  0
  2  4  2  0
  2  5  1  0
  5  6  2  0
  6  7  1  0
  7  8  2  0
  8  9  1  0
  9 10  1  0
 10 11  2  0
 11 12  1  0
 12 13  1  0
 13 14  2  0
 14 15  1  0
 15 16  2  0
 16 17  1  0
 17 18  2  0
 12 19  2  0
 19 20  1  0
 20 21  2  0
 21 22  1  0
 22 23  2  0
 23 24  1  0
 24 25  2  0
  8 26  1  0
 26 27  2  0
 27  5  1  0
 25 10  1  0
 18 13  1  0
 24 19  1  0
  1 28  1  0
  1 29  1  0
  6 30  1  0
  7 31  1  0
  9 32  1  0
 14 33  1  0
 15 34  1  0
 16 35  1  0
 17 36  1  0
 18 37  1  0
 20 38  1  0
 21 39  1  0
 22 40  1  0
 23 41  1  0
 26 42  1  0
 27 43  1  0
M  END
>  <meeko>  (4) 
{"is_sidechain": false}

>  <CID>  (4) 
Z357964720

>  <pose_index>  (4) 
4

>  <docking_score>  (4) 
-9.479

>  <rmsd_to_best_selected>  (4) 
1.2853133543126805

>  <MWT>  (4) 
376.44099999999986

>  <TPSA>  (4) 
97.97

>  <logP>  (4) 
3.687800000000002

>  <HBD>  (4) 
2

>  <HBA>  (4) 
5

>  <SMILES>  (4) 
[H]c1c([H])c([H])c(-c2nc(N([H])c3c([H])c([H])c(S(=O)(=O)N([H])[H])c([H])c3[H])nc3c([H])c([H])c([H])c([H])c23)c([H])c1[H]

$$$$
Z357964720_pose5
     RDKit          3D

 43 46  0  0  0  0  0  0  0  0999 V2000
   -0.9903   43.4880   51.8277 N   0  0  0  0  0  0  0  0  0  0  0  0
   -1.2883   44.4580   53.1722 S   0  0  0  0  0  0  0  0  0  0  0  0
   -1.8557   43.6286   54.2066 O   0  0  0  0  0  0  0  0  0  0  0  0
   -1.9573   45.6311   52.6571 O   0  0  0  0  0  0  0  0  0  0  0  0
    0.3573   44.9113   53.6499 C   0  0  0  0  0  0  0  0  0  0  0  0
    1.1193   45.7457   52.8366 C   0  0  0  0  0  0  0  0  0  0  0  0
    2.4172   46.0866   53.2298 C   0  0  0  0  0  0  0  0  0  0  0  0
    2.9694   45.6154   54.4346 C   0  0  0  0  0  0  0  0  0  0  0  0
    4.2839   45.9738   54.7487 N   0  0  0  0  0  0  0  0  0  0  0  0
    5.4841   45.9525   54.0448 C   0  0  0  0  0  0  0  0  0  0  0  0
    5.6267   45.2609   52.9140 N   0  0  0  0  0  0  0  0  0  0  0  0
    6.8257   45.2964   52.2949 C   0  0  0  0  0  0  0  0  0  0  0  0
    6.8814   44.4735   51.0760 C   0  0  0  0  0  0  0  0  0  0  0  0
    7.8262   44.7463   50.0747 C   0  0  0  0  0  0  0  0  0  0  0  0
    7.8865   43.9724   48.9132 C   0  0  0  0  0  0  0  0  0  0  0  0
    6.9942   42.9179   48.7332 C   0  0  0  0  0  0  0  0  0  0  0  0
    6.0393   42.6411   49.7083 C   0  0  0  0  0  0  0  0  0  0  0  0
    5.9810   43.4149   50.8699 C   0  0  0  0  0  0  0  0  0  0  0  0
    7.9080   46.0468   52.7736 C   0  0  0  0  0  0  0  0  0  0  0  0
    9.1805   46.1632   52.1580 C   0  0  0  0  0  0  0  0  0  0  0  0
   10.1813   46.9428   52.7318 C   0  0  0  0  0  0  0  0  0  0  0  0
    9.9236   47.6148   53.9184 C   0  0  0  0  0  0  0  0  0  0  0  0
    8.6647   47.5056   54.5164 C   0  0  0  0  0  0  0  0  0  0  0  0
    7.6487   46.7348   53.9609 C   0  0  0  0  0  0  0  0  0  0  0  0
    6.4664   46.6879   54.5867 N   0  0  0  0  0  0  0  0  0  0  0  0
    2.1751   44.7816   55.2334 C   0  0  0  0  0  0  0  0  0  0  0  0
    0.8737   44.4331   54.8542 C   0  0  0  0  0  0  0  0  0  0  0  0
   -0.1213   42.9739   51.9786 H   0  0  0  0  0  0  0  0  0  0  0  0
   -1.7659   42.8671   51.6006 H   0  0  0  0  0  0  0  0  0  0  0  0
    0.7045   46.1328   51.8942 H   0  0  0  0  0  0  0  0  0  0  0  0
    3.0208   46.7388   52.5815 H   0  0  0  0  0  0  0  0  0  0  0  0
    4.4744   46.2374   55.7039 H   0  0  0  0  0  0  0  0  0  0  0  0
    8.5296   45.5818   50.2064 H   0  0  0  0  0  0  0  0  0  0  0  0
    8.6380   44.1955   48.1415 H   0  0  0  0  0  0  0  0  0  0  0  0
    7.0439   42.3044   47.8215 H   0  0  0  0  0  0  0  0  0  0  0  0
    5.3304   41.8126   49.5637 H   0  0  0  0  0  0  0  0  0  0  0  0
    5.2204   43.1925   51.6329 H   0  0  0  0  0  0  0  0  0  0  0  0
    9.3791   45.6311   51.2159 H   0  0  0  0  0  0  0  0  0  0  0  0
   11.1665   47.0252   52.2494 H   0  0  0  0  0  0  0  0  0  0  0  0
   10.7061   48.2304   54.3860 H   0  0  0  0  0  0  0  0  0  0  0  0
    8.4717   48.0457   55.4550 H   0  0  0  0  0  0  0  0  0  0  0  0
    2.5830   44.3929   56.1782 H   0  0  0  0  0  0  0  0  0  0  0  0
    0.2625   43.7868   55.5013 H   0  0  0  0  0  0  0  0  0  0  0  0
  1  2  1  0
  2  3  2  0
  2  4  2  0
  2  5  1  0
  5  6  2  0
  6  7  1  0
  7  8  2  0
  8  9  1  0
  9 10  1  0
 10 11  2  0
 11 12  1  0
 12 13  1  0
 13 14  2  0
 14 15  1  0
 15 16  2  0
 16 17  1  0
 17 18  2  0
 12 19  2  0
 19 20  1  0
 20 21  2  0
 21 22  1  0
 22 23  2  0
 23 24  1  0
 24 25  2  0
  8 26  1  0
 26 27  2  0
 27  5  1  0
 25 10  1  0
 18 13  1  0
 24 19  1  0
  1 28  1  0
  1 29  1  0
  6 30  1  0
  7 31  1  0
  9 32  1  0
 14 33  1  0
 15 34  1  0
 16 35  1  0
 17 36  1  0
 18 37  1  0
 20 38  1  0
 21 39  1  0
 22 40  1  0
 23 41  1  0
 26 42  1  0
 27 43  1  0
M  END
>  <meeko>  (5) 
{"is_sidechain": false}

>  <CID>  (5) 
Z357964720

>  <pose_index>  (5) 
5

>  <docking_score>  (5) 
-9.471

>  <rmsd_to_best_selected>  (5) 
0.780655986215157

>  <MWT>  (5) 
376.44099999999986

>  <TPSA>  (5) 
97.97

>  <logP>  (5) 
3.687800000000002

>  <HBD>  (5) 
2

>  <HBA>  (5) 
5

>  <SMILES>  (5) 
[H]c1c([H])c([H])c(-c2nc(N([H])c3c([H])c([H])c(S(=O)(=O)N([H])[H])c([H])c3[H])nc3c([H])c([H])c([H])c([H])c23)c([H])c1[H]

$$$$
