Z3590543759_pose3
     RDKit          3D

 39 42  0  0  0  0  0  0  0  0999 V2000
    6.3968   43.6475   54.1162 O   0  0  0  0  0  0  0  0  0  0  0  0
    6.3102   44.4869   53.2263 C   0  0  0  0  0  0  0  0  0  0  0  0
    5.1268   44.9711   52.6906 N   0  0  0  0  0  0  0  0  0  0  0  0
    3.8407   44.5963   52.9991 C   0  0  0  0  0  0  0  0  0  0  0  0
    3.1392   43.7718   52.0078 C   0  0  0  0  0  0  0  0  0  0  0  0
    1.8752   43.3434   52.1975 C   0  0  0  0  0  0  0  0  0  0  0  0
    1.1933   43.6943   53.3935 C   0  0  0  0  0  0  0  0  0  0  0  0
   -0.0111   43.4329   53.8507 N   0  0  0  0  0  0  0  0  0  0  0  0
   -0.1306   44.0392   55.0846 N   0  0  0  0  0  0  0  0  0  0  0  0
    1.0041   44.6517   55.3429 C   0  0  0  0  0  0  0  0  0  0  0  0
    1.8799   44.4704   54.3094 N   0  0  0  0  0  0  0  0  0  0  0  0
    3.1826   44.9191   54.1289 C   0  0  0  0  0  0  0  0  0  0  0  0
    7.5570   45.0791   52.6571 C   0  0  0  0  0  0  0  0  0  0  0  0
    7.9569   46.3721   53.0307 C   0  0  0  0  0  0  0  0  0  0  0  0
    7.1557   47.3038   54.2501 Cl  0  0  0  0  0  0  0  0  0  0  0  0
    9.0938   46.9490   52.4569 C   0  0  0  0  0  0  0  0  0  0  0  0
    9.8400   46.2442   51.5165 C   0  0  0  0  0  0  0  0  0  0  0  0
    9.4625   44.9533   51.1504 C   0  0  0  0  0  0  0  0  0  0  0  0
    8.3250   44.3590   51.7115 C   0  0  0  0  0  0  0  0  0  0  0  0
    7.9110   43.0871   51.4168 O   0  0  0  0  0  0  0  0  0  0  0  0
    7.0831   42.8870   50.2727 C   0  0  0  0  0  0  0  0  0  0  0  0
    7.9479   42.3222   49.1870 C   0  0  0  0  0  0  0  0  0  0  0  0
    8.4311   43.1967   48.0592 C   0  0  0  0  0  0  0  0  0  0  0  0
    7.4073   42.1264   47.7946 C   0  0  0  0  0  0  0  0  0  0  0  0
    5.2287   45.7647   52.0671 H   0  0  0  0  0  0  0  0  0  0  0  0
    3.6617   43.4947   51.0804 H   0  0  0  0  0  0  0  0  0  0  0  0
    1.3768   42.7282   51.4339 H   0  0  0  0  0  0  0  0  0  0  0  0
    1.2172   45.2258   56.2568 H   0  0  0  0  0  0  0  0  0  0  0  0
    3.6713   45.5317   54.9008 H   0  0  0  0  0  0  0  0  0  0  0  0
    9.3999   47.9641   52.7497 H   0  0  0  0  0  0  0  0  0  0  0  0
   10.7285   46.7065   51.0618 H   0  0  0  0  0  0  0  0  0  0  0  0
   10.0625   44.3971   50.4152 H   0  0  0  0  0  0  0  0  0  0  0  0
    6.2733   42.1825   50.5132 H   0  0  0  0  0  0  0  0  0  0  0  0
    6.6274   43.8356   49.9524 H   0  0  0  0  0  0  0  0  0  0  0  0
    8.4309   41.6725   49.9317 H   0  0  0  0  0  0  0  0  0  0  0  0
    8.1403   44.2570   48.0221 H   0  0  0  0  0  0  0  0  0  0  0  0
    9.4155   43.4519   47.6400 H   0  0  0  0  0  0  0  0  0  0  0  0
    6.3683   42.4043   47.5639 H   0  0  0  0  0  0  0  0  0  0  0  0
    7.3337   41.2753   47.1017 H   0  0  0  0  0  0  0  0  0  0  0  0
  1  2  2  0
  2  3  1  0
  3  4  1  0
  4  5  1  0
  5  6  2  0
  6  7  1  0
  7  8  2  0
  8  9  1  0
  9 10  2  0
 10 11  1  0
 11 12  1  0
  2 13  1  0
 13 14  2  0
 14 15  1  0
 14 16  1  0
 16 17  2  0
 17 18  1  0
 18 19  2  0
 19 20  1  0
 20 21  1  0
 21 22  1  0
 22 23  1  0
 23 24  1  0
 12  4  2  0
 19 13  1  0
 24 22  1  0
 11  7  1  0
  3 25  1  0
  5 26  1  0
  6 27  1  0
 10 28  1  0
 12 29  1  0
 16 30  1  0
 17 31  1  0
 18 32  1  0
 21 33  1  0
 21 34  1  0
 22 35  1  0
 23 36  1  0
 23 37  1  0
 24 38  1  0
 24 39  1  0
M  END
>  <meeko>  (1) 
{"is_sidechain": false}

>  <CID>  (1) 
Z3590543759

>  <pose_index>  (1) 
3

>  <docking_score>  (1) 
-8.438

>  <rmsd_to_best_selected>  (1) 
1.8247970696474647

>  <MWT>  (1) 
342.78599999999983

>  <TPSA>  (1) 
68.52000000000001

>  <logP>  (1) 
3.4238000000000017

>  <HBD>  (1) 
1

>  <HBA>  (1) 
5

>  <SMILES>  (1) 
[H]c1c([H])c(Cl)c(C(=O)N([H])c2c([H])c([H])c3nnc([H])n3c2[H])c(OC([H])([H])C2([H])C([H])([H])C2([H])[H])c1[H]

$$$$
Z3590543759_pose1
     RDKit          3D

 39 42  0  0  0  0  0  0  0  0999 V2000
    5.3050   46.7890   51.8080 O   0  0  0  0  0  0  0  0  0  0  0  0
    6.0210   45.8700   52.1890 C   0  0  0  0  0  0  0  0  0  0  0  0
    5.5760   44.6440   52.6580 N   0  0  0  0  0  0  0  0  0  0  0  0
    4.2790   44.2230   52.8320 C   0  0  0  0  0  0  0  0  0  0  0  0
    3.8200   43.1310   51.9660 C   0  0  0  0  0  0  0  0  0  0  0  0
    2.5690   42.6330   52.0420 C   0  0  0  0  0  0  0  0  0  0  0  0
    1.6610   43.1750   52.9900 C   0  0  0  0  0  0  0  0  0  0  0  0
    0.4100   42.9050   53.2930 N   0  0  0  0  0  0  0  0  0  0  0  0
    0.0330   43.7590   54.3090 N   0  0  0  0  0  0  0  0  0  0  0  0
    1.0630   44.5240   54.5950 C   0  0  0  0  0  0  0  0  0  0  0  0
    2.1220   44.2010   53.7950 N   0  0  0  0  0  0  0  0  0  0  0  0
    3.4080   44.7250   53.7280 C   0  0  0  0  0  0  0  0  0  0  0  0
    7.5050   46.0330   52.1430 C   0  0  0  0  0  0  0  0  0  0  0  0
    8.1900   46.5630   53.2480 C   0  0  0  0  0  0  0  0  0  0  0  0
    7.4280   46.9230   54.7600 Cl  0  0  0  0  0  0  0  0  0  0  0  0
    9.5720   46.7670   53.1860 C   0  0  0  0  0  0  0  0  0  0  0  0
   10.2780   46.4420   52.0320 C   0  0  0  0  0  0  0  0  0  0  0  0
    9.6120   45.8980   50.9340 C   0  0  0  0  0  0  0  0  0  0  0  0
    8.2280   45.6900   50.9760 C   0  0  0  0  0  0  0  0  0  0  0  0
    7.5130   45.1370   49.9460 O   0  0  0  0  0  0  0  0  0  0  0  0
    7.8170   43.8010   49.5470 C   0  0  0  0  0  0  0  0  0  0  0  0
    6.5520   43.0050   49.6490 C   0  0  0  0  0  0  0  0  0  0  0  0
    6.5980   41.5240   49.9260 C   0  0  0  0  0  0  0  0  0  0  0  0
    6.1700   42.0220   48.5720 C   0  0  0  0  0  0  0  0  0  0  0  0
    6.2990   43.9450   52.7940 H   0  0  0  0  0  0  0  0  0  0  0  0
    4.5188   42.7048   51.2311 H   0  0  0  0  0  0  0  0  0  0  0  0
    2.2551   41.8153   51.3765 H   0  0  0  0  0  0  0  0  0  0  0  0
    1.0709   45.3090   55.3655 H   0  0  0  0  0  0  0  0  0  0  0  0
    3.7110   45.5414   54.4001 H   0  0  0  0  0  0  0  0  0  0  0  0
   10.1032   47.1862   54.0532 H   0  0  0  0  0  0  0  0  0  0  0  0
   11.3634   46.6144   51.9856 H   0  0  0  0  0  0  0  0  0  0  0  0
   10.1776   45.6306   50.0292 H   0  0  0  0  0  0  0  0  0  0  0  0
    8.1842   43.7925   48.5101 H   0  0  0  0  0  0  0  0  0  0  0  0
    8.5993   43.3717   50.1902 H   0  0  0  0  0  0  0  0  0  0  0  0
    6.0639   43.8714   50.1192 H   0  0  0  0  0  0  0  0  0  0  0  0
    7.5668   41.0166   50.0442 H   0  0  0  0  0  0  0  0  0  0  0  0
    6.1578   40.8610   50.6854 H   0  0  0  0  0  0  0  0  0  0  0  0
    6.8260   41.8785   47.7008 H   0  0  0  0  0  0  0  0  0  0  0  0
    5.2875   41.8736   47.9323 H   0  0  0  0  0  0  0  0  0  0  0  0
  1  2  2  0
  2  3  1  0
  3  4  1  0
  4  5  1  0
  5  6  2  0
  6  7  1  0
  7  8  2  0
  8  9  1  0
  9 10  2  0
 10 11  1  0
 11 12  1  0
  2 13  1  0
 13 14  2  0
 14 15  1  0
 14 16  1  0
 16 17  2  0
 17 18  1  0
 18 19  2  0
 19 20  1  0
 20 21  1  0
 21 22  1  0
 22 23  1  0
 23 24  1  0
 12  4  2  0
 19 13  1  0
 24 22  1  0
 11  7  1  0
  3 25  1  0
  5 26  1  0
  6 27  1  0
 10 28  1  0
 12 29  1  0
 16 30  1  0
 17 31  1  0
 18 32  1  0
 21 33  1  0
 21 34  1  0
 22 35  1  0
 23 36  1  0
 23 37  1  0
 24 38  1  0
 24 39  1  0
M  END
>  <meeko>  (2) 
{"is_sidechain": false}

>  <CID>  (2) 
Z3590543759

>  <pose_index>  (2) 
1

>  <docking_score>  (2) 
-8.844

>  <rmsd_to_best_selected>  (2) 
0.0

>  <MWT>  (2) 
342.78599999999983

>  <TPSA>  (2) 
68.52000000000001

>  <logP>  (2) 
3.4238000000000017

>  <HBD>  (2) 
1

>  <HBA>  (2) 
5

>  <SMILES>  (2) 
[H]c1c([H])c(Cl)c(C(=O)N([H])c2c([H])c([H])c3nnc([H])n3c2[H])c(OC([H])([H])C2([H])C([H])([H])C2([H])[H])c1[H]

$$$$
Z3590543759_pose5
     RDKit          3D

 39 42  0  0  0  0  0  0  0  0999 V2000
    4.9112   44.8496   50.8856 O   0  0  0  0  0  0  0  0  0  0  0  0
    5.5386   44.9827   51.9306 C   0  0  0  0  0  0  0  0  0  0  0  0
    5.0223   44.8126   53.2062 N   0  0  0  0  0  0  0  0  0  0  0  0
    3.7301   44.5096   53.5645 C   0  0  0  0  0  0  0  0  0  0  0  0
    3.2220   43.1975   53.1463 C   0  0  0  0  0  0  0  0  0  0  0  0
    1.9711   42.7878   53.4374 C   0  0  0  0  0  0  0  0  0  0  0  0
    1.1122   43.6446   54.1741 C   0  0  0  0  0  0  0  0  0  0  0  0
   -0.1269   43.5272   54.5993 N   0  0  0  0  0  0  0  0  0  0  0  0
   -0.4500   44.6869   55.2729 N   0  0  0  0  0  0  0  0  0  0  0  0
    0.5995   45.4779   55.2373 C   0  0  0  0  0  0  0  0  0  0  0  0
    1.6186   44.8735   54.5579 N   0  0  0  0  0  0  0  0  0  0  0  0
    2.9053   45.3109   54.2654 C   0  0  0  0  0  0  0  0  0  0  0  0
    6.9882   45.3387   51.8733 C   0  0  0  0  0  0  0  0  0  0  0  0
    7.4109   46.6296   52.2299 C   0  0  0  0  0  0  0  0  0  0  0  0
    6.3534   47.8328   52.8861 Cl  0  0  0  0  0  0  0  0  0  0  0  0
    8.7602   46.9800   52.1232 C   0  0  0  0  0  0  0  0  0  0  0  0
    9.6936   46.0519   51.6699 C   0  0  0  0  0  0  0  0  0  0  0  0
    9.2879   44.7626   51.3290 C   0  0  0  0  0  0  0  0  0  0  0  0
    7.9406   44.3926   51.4254 C   0  0  0  0  0  0  0  0  0  0  0  0
    7.4759   43.1384   51.1319 O   0  0  0  0  0  0  0  0  0  0  0  0
    8.1685   42.3678   50.1499 C   0  0  0  0  0  0  0  0  0  0  0  0
    7.7079   42.8390   48.8043 C   0  0  0  0  0  0  0  0  0  0  0  0
    7.9529   42.0036   47.5744 C   0  0  0  0  0  0  0  0  0  0  0  0
    8.6986   43.2961   47.7663 C   0  0  0  0  0  0  0  0  0  0  0  0
    5.7077   44.8174   53.9534 H   0  0  0  0  0  0  0  0  0  0  0  0
    3.8829   42.5273   52.5771 H   0  0  0  0  0  0  0  0  0  0  0  0
    1.6196   41.7991   53.1072 H   0  0  0  0  0  0  0  0  0  0  0  0
    0.6495   46.4798   55.6887 H   0  0  0  0  0  0  0  0  0  0  0  0
    3.2461   46.3008   54.6028 H   0  0  0  0  0  0  0  0  0  0  0  0
    9.0858   47.9940   52.3987 H   0  0  0  0  0  0  0  0  0  0  0  0
   10.7524   46.3364   51.5806 H   0  0  0  0  0  0  0  0  0  0  0  0
   10.0316   44.0303   50.9816 H   0  0  0  0  0  0  0  0  0  0  0  0
    9.2535   42.5187   50.2501 H   0  0  0  0  0  0  0  0  0  0  0  0
    7.9591   41.2956   50.2788 H   0  0  0  0  0  0  0  0  0  0  0  0
    6.8218   43.2832   49.2814 H   0  0  0  0  0  0  0  0  0  0  0  0
    8.4845   41.0443   47.6581 H   0  0  0  0  0  0  0  0  0  0  0  0
    7.3178   41.5825   46.7810 H   0  0  0  0  0  0  0  0  0  0  0  0
    9.7755   43.2815   47.9901 H   0  0  0  0  0  0  0  0  0  0  0  0
    8.8344   44.2110   47.1709 H   0  0  0  0  0  0  0  0  0  0  0  0
  1  2  2  0
  2  3  1  0
  3  4  1  0
  4  5  1  0
  5  6  2  0
  6  7  1  0
  7  8  2  0
  8  9  1  0
  9 10  2  0
 10 11  1  0
 11 12  1  0
  2 13  1  0
 13 14  2  0
 14 15  1  0
 14 16  1  0
 16 17  2  0
 17 18  1  0
 18 19  2  0
 19 20  1  0
 20 21  1  0
 21 22  1  0
 22 23  1  0
 23 24  1  0
 12  4  2  0
 19 13  1  0
 24 22  1  0
 11  7  1  0
  3 25  1  0
  5 26  1  0
  6 27  1  0
 10 28  1  0
 12 29  1  0
 16 30  1  0
 17 31  1  0
 18 32  1  0
 21 33  1  0
 21 34  1  0
 22 35  1  0
 23 36  1  0
 23 37  1  0
 24 38  1  0
 24 39  1  0
M  END
>  <meeko>  (3) 
{"is_sidechain": false}

>  <CID>  (3) 
Z3590543759

>  <pose_index>  (3) 
5

>  <docking_score>  (3) 
-8.144

>  <rmsd_to_best_selected>  (3) 
1.9004554776015192

>  <MWT>  (3) 
342.78599999999983

>  <TPSA>  (3) 
68.52000000000001

>  <logP>  (3) 
3.4238000000000017

>  <HBD>  (3) 
1

>  <HBA>  (3) 
5

>  <SMILES>  (3) 
[H]c1c([H])c(Cl)c(C(=O)N([H])c2c([H])c([H])c3nnc([H])n3c2[H])c(OC([H])([H])C2([H])C([H])([H])C2([H])[H])c1[H]

$$$$
Z3590543759_pose6
     RDKit          3D

 39 42  0  0  0  0  0  0  0  0999 V2000
    5.0835   46.4663   51.0073 O   0  0  0  0  0  0  0  0  0  0  0  0
    5.8173   45.8189   51.7455 C   0  0  0  0  0  0  0  0  0  0  0  0
    5.4024   44.8394   52.6347 N   0  0  0  0  0  0  0  0  0  0  0  0
    4.1189   44.4252   52.9020 C   0  0  0  0  0  0  0  0  0  0  0  0
    3.5266   43.4668   51.9612 C   0  0  0  0  0  0  0  0  0  0  0  0
    2.2761   42.9894   52.1176 C   0  0  0  0  0  0  0  0  0  0  0  0
    1.5003   43.4192   53.2262 C   0  0  0  0  0  0  0  0  0  0  0  0
    0.2818   43.1380   53.6346 N   0  0  0  0  0  0  0  0  0  0  0  0
    0.0509   43.8570   54.7887 N   0  0  0  0  0  0  0  0  0  0  0  0
    1.1345   44.5564   55.0502 C   0  0  0  0  0  0  0  0  0  0  0  0
    2.0843   44.3215   54.0976 N   0  0  0  0  0  0  0  0  0  0  0  0
    3.3719   44.8225   53.9507 C   0  0  0  0  0  0  0  0  0  0  0  0
    7.2913   46.0575   51.7035 C   0  0  0  0  0  0  0  0  0  0  0  0
    7.8637   47.0642   52.4987 C   0  0  0  0  0  0  0  0  0  0  0  0
    6.9727   47.9823   53.6639 Cl  0  0  0  0  0  0  0  0  0  0  0  0
    9.2346   47.3245   52.4193 C   0  0  0  0  0  0  0  0  0  0  0  0
   10.0421   46.5867   51.5583 C   0  0  0  0  0  0  0  0  0  0  0  0
    9.4877   45.5729   50.7775 C   0  0  0  0  0  0  0  0  0  0  0  0
    8.1154   45.2995   50.8401 C   0  0  0  0  0  0  0  0  0  0  0  0
    7.5082   44.3028   50.1211 O   0  0  0  0  0  0  0  0  0  0  0  0
    8.3292   43.3252   49.4840 C   0  0  0  0  0  0  0  0  0  0  0  0
    7.8247   41.9773   49.8980 C   0  0  0  0  0  0  0  0  0  0  0  0
    6.7678   41.2729   49.0872 C   0  0  0  0  0  0  0  0  0  0  0  0
    6.4326   41.8112   50.4520 C   0  0  0  0  0  0  0  0  0  0  0  0
    6.1479   44.3010   53.0626 H   0  0  0  0  0  0  0  0  0  0  0  0
    4.1225   43.1275   51.1010 H   0  0  0  0  0  0  0  0  0  0  0  0
    1.8604   42.2736   51.3932 H   0  0  0  0  0  0  0  0  0  0  0  0
    1.2572   45.2313   55.9101 H   0  0  0  0  0  0  0  0  0  0  0  0
    3.7774   45.5362   54.6831 H   0  0  0  0  0  0  0  0  0  0  0  0
    9.6778   48.1168   53.0405 H   0  0  0  0  0  0  0  0  0  0  0  0
   11.1186   46.8036   51.4937 H   0  0  0  0  0  0  0  0  0  0  0  0
   10.1323   44.9842   50.1083 H   0  0  0  0  0  0  0  0  0  0  0  0
    8.2621   43.4323   48.3913 H   0  0  0  0  0  0  0  0  0  0  0  0
    9.3820   43.4523   49.7765 H   0  0  0  0  0  0  0  0  0  0  0  0
    8.8360   41.7242   50.2490 H   0  0  0  0  0  0  0  0  0  0  0  0
    6.3524   41.7537   48.1893 H   0  0  0  0  0  0  0  0  0  0  0  0
    6.6893   40.2908   48.5981 H   0  0  0  0  0  0  0  0  0  0  0  0
    5.7724   42.6854   50.5515 H   0  0  0  0  0  0  0  0  0  0  0  0
    6.0078   41.3855   51.3731 H   0  0  0  0  0  0  0  0  0  0  0  0
  1  2  2  0
  2  3  1  0
  3  4  1  0
  4  5  1  0
  5  6  2  0
  6  7  1  0
  7  8  2  0
  8  9  1  0
  9 10  2  0
 10 11  1  0
 11 12  1  0
  2 13  1  0
 13 14  2  0
 14 15  1  0
 14 16  1  0
 16 17  2  0
 17 18  1  0
 18 19  2  0
 19 20  1  0
 20 21  1  0
 21 22  1  0
 22 23  1  0
 23 24  1  0
 12  4  2  0
 19 13  1  0
 24 22  1  0
 11  7  1  0
  3 25  1  0
  5 26  1  0
  6 27  1  0
 10 28  1  0
 12 29  1  0
 16 30  1  0
 17 31  1  0
 18 32  1  0
 21 33  1  0
 21 34  1  0
 22 35  1  0
 23 36  1  0
 23 37  1  0
 24 38  1  0
 24 39  1  0
M  END
>  <meeko>  (4) 
{"is_sidechain": false}

>  <CID>  (4) 
Z3590543759

>  <pose_index>  (4) 
6

>  <docking_score>  (4) 
-8.083

>  <rmsd_to_best_selected>  (4) 
0.9109314034779306

>  <MWT>  (4) 
342.78599999999983

>  <TPSA>  (4) 
68.52000000000001

>  <logP>  (4) 
3.4238000000000017

>  <HBD>  (4) 
1

>  <HBA>  (4) 
5

>  <SMILES>  (4) 
[H]c1c([H])c(Cl)c(C(=O)N([H])c2c([H])c([H])c3nnc([H])n3c2[H])c(OC([H])([H])C2([H])C([H])([H])C2([H])[H])c1[H]

$$$$
Z3590543759_pose7
     RDKit          3D

 39 42  0  0  0  0  0  0  0  0999 V2000
    6.2547   45.5940   54.2976 O   0  0  0  0  0  0  0  0  0  0  0  0
    6.3386   45.3814   53.0932 C   0  0  0  0  0  0  0  0  0  0  0  0
    5.3593   44.7908   52.3099 N   0  0  0  0  0  0  0  0  0  0  0  0
    4.1407   44.2933   52.7083 C   0  0  0  0  0  0  0  0  0  0  0  0
    3.6771   43.0728   52.0377 C   0  0  0  0  0  0  0  0  0  0  0  0
    2.4991   42.4914   52.3425 C   0  0  0  0  0  0  0  0  0  0  0  0
    1.6767   43.0700   53.3455 C   0  0  0  0  0  0  0  0  0  0  0  0
    0.5071   42.7406   53.8479 N   0  0  0  0  0  0  0  0  0  0  0  0
    0.1872   43.6776   54.8091 N   0  0  0  0  0  0  0  0  0  0  0  0
    1.1695   44.5492   54.8636 C   0  0  0  0  0  0  0  0  0  0  0  0
    2.1400   44.2174   53.9612 N   0  0  0  0  0  0  0  0  0  0  0  0
    3.3508   44.8295   53.6594 C   0  0  0  0  0  0  0  0  0  0  0  0
    7.5744   45.7955   52.3626 C   0  0  0  0  0  0  0  0  0  0  0  0
    7.9165   47.1543   52.2729 C   0  0  0  0  0  0  0  0  0  0  0  0
    7.0557   48.4121   53.0931 Cl  0  0  0  0  0  0  0  0  0  0  0  0
    9.0424   47.5462   51.5434 C   0  0  0  0  0  0  0  0  0  0  0  0
    9.8339   46.5950   50.9068 C   0  0  0  0  0  0  0  0  0  0  0  0
    9.5140   45.2417   51.0032 C   0  0  0  0  0  0  0  0  0  0  0  0
    8.3881   44.8282   51.7263 C   0  0  0  0  0  0  0  0  0  0  0  0
    8.0288   43.5159   51.8843 O   0  0  0  0  0  0  0  0  0  0  0  0
    8.1797   42.6299   50.7765 C   0  0  0  0  0  0  0  0  0  0  0  0
    6.8258   42.4448   50.1624 C   0  0  0  0  0  0  0  0  0  0  0  0
    6.6832   41.8585   48.7814 C   0  0  0  0  0  0  0  0  0  0  0  0
    6.3716   43.3117   49.0167 C   0  0  0  0  0  0  0  0  0  0  0  0
    5.5282   44.8215   51.3101 H   0  0  0  0  0  0  0  0  0  0  0  0
    4.3106   42.6180   51.2620 H   0  0  0  0  0  0  0  0  0  0  0  0
    2.1785   41.5782   51.8197 H   0  0  0  0  0  0  0  0  0  0  0  0
    1.2051   45.4182   55.5371 H   0  0  0  0  0  0  0  0  0  0  0  0
    3.6607   45.7413   54.1910 H   0  0  0  0  0  0  0  0  0  0  0  0
    9.3043   48.6122   51.4721 H   0  0  0  0  0  0  0  0  0  0  0  0
   10.7132   46.9115   50.3266 H   0  0  0  0  0  0  0  0  0  0  0  0
   10.1502   44.4934   50.5080 H   0  0  0  0  0  0  0  0  0  0  0  0
    8.8707   43.0644   50.0391 H   0  0  0  0  0  0  0  0  0  0  0  0
    8.5923   41.6645   51.1049 H   0  0  0  0  0  0  0  0  0  0  0  0
    6.4268   42.2013   51.1581 H   0  0  0  0  0  0  0  0  0  0  0  0
    7.5788   41.5738   48.2097 H   0  0  0  0  0  0  0  0  0  0  0  0
    6.1373   41.0060   48.3511 H   0  0  0  0  0  0  0  0  0  0  0  0
    7.0395   44.0889   48.6169 H   0  0  0  0  0  0  0  0  0  0  0  0
    5.5036   43.9609   48.8296 H   0  0  0  0  0  0  0  0  0  0  0  0
  1  2  2  0
  2  3  1  0
  3  4  1  0
  4  5  1  0
  5  6  2  0
  6  7  1  0
  7  8  2  0
  8  9  1  0
  9 10  2  0
 10 11  1  0
 11 12  1  0
  2 13  1  0
 13 14  2  0
 14 15  1  0
 14 16  1  0
 16 17  2  0
 17 18  1  0
 18 19  2  0
 19 20  1  0
 20 21  1  0
 21 22  1  0
 22 23  1  0
 23 24  1  0
 12  4  2  0
 19 13  1  0
 24 22  1  0
 11  7  1  0
  3 25  1  0
  5 26  1  0
  6 27  1  0
 10 28  1  0
 12 29  1  0
 16 30  1  0
 17 31  1  0
 18 32  1  0
 21 33  1  0
 21 34  1  0
 22 35  1  0
 23 36  1  0
 23 37  1  0
 24 38  1  0
 24 39  1  0
M  END
>  <meeko>  (5) 
{"is_sidechain": false}

>  <CID>  (5) 
Z3590543759

>  <pose_index>  (5) 
7

>  <docking_score>  (5) 
-7.923

>  <rmsd_to_best_selected>  (5) 
1.477667952008002

>  <MWT>  (5) 
342.78599999999983

>  <TPSA>  (5) 
68.52000000000001

>  <logP>  (5) 
3.4238000000000017

>  <HBD>  (5) 
1

>  <HBA>  (5) 
5

>  <SMILES>  (5) 
[H]c1c([H])c(Cl)c(C(=O)N([H])c2c([H])c([H])c3nnc([H])n3c2[H])c(OC([H])([H])C2([H])C([H])([H])C2([H])[H])c1[H]

$$$$
Z3590543759_pose8
     RDKit          3D

 39 42  0  0  0  0  0  0  0  0999 V2000
    5.2174   46.5054   51.3411 O   0  0  0  0  0  0  0  0  0  0  0  0
    5.9805   45.7971   51.9878 C   0  0  0  0  0  0  0  0  0  0  0  0
    5.6057   44.7100   52.7634 N   0  0  0  0  0  0  0  0  0  0  0  0
    4.3379   44.2354   53.0011 C   0  0  0  0  0  0  0  0  0  0  0  0
    3.7591   43.3615   51.9733 C   0  0  0  0  0  0  0  0  0  0  0  0
    2.5235   42.8348   52.0939 C   0  0  0  0  0  0  0  0  0  0  0  0
    1.7519   43.1266   53.2491 C   0  0  0  0  0  0  0  0  0  0  0  0
    0.5480   42.7702   53.6400 N   0  0  0  0  0  0  0  0  0  0  0  0
    0.3144   43.3601   54.8647 N   0  0  0  0  0  0  0  0  0  0  0  0
    1.3815   44.0595   55.1840 C   0  0  0  0  0  0  0  0  0  0  0  0
    2.3241   43.9509   54.2021 N   0  0  0  0  0  0  0  0  0  0  0  0
    3.5953   44.5010   54.0931 C   0  0  0  0  0  0  0  0  0  0  0  0
    7.4467   46.0775   51.9509 C   0  0  0  0  0  0  0  0  0  0  0  0
    7.9234   47.3717   52.2182 C   0  0  0  0  0  0  0  0  0  0  0  0
    6.9077   48.6734   52.7397 Cl  0  0  0  0  0  0  0  0  0  0  0  0
    9.2906   47.6482   52.1300 C   0  0  0  0  0  0  0  0  0  0  0  0
   10.1896   46.6432   51.7841 C   0  0  0  0  0  0  0  0  0  0  0  0
    9.7300   45.3501   51.5338 C   0  0  0  0  0  0  0  0  0  0  0  0
    8.3637   45.0548   51.6133 C   0  0  0  0  0  0  0  0  0  0  0  0
    7.8464   43.8029   51.4054 O   0  0  0  0  0  0  0  0  0  0  0  0
    7.9863   43.2133   50.1139 C   0  0  0  0  0  0  0  0  0  0  0  0
    6.6088   43.0012   49.5663 C   0  0  0  0  0  0  0  0  0  0  0  0
    5.9952   41.6248   49.5486 C   0  0  0  0  0  0  0  0  0  0  0  0
    6.4018   42.2827   48.2576 C   0  0  0  0  0  0  0  0  0  0  0  0
    6.3717   44.1462   53.1139 H   0  0  0  0  0  0  0  0  0  0  0  0
    4.3520   43.1290   51.0764 H   0  0  0  0  0  0  0  0  0  0  0  0
    2.1174   42.1852   51.3046 H   0  0  0  0  0  0  0  0  0  0  0  0
    1.4976   44.6462   56.1072 H   0  0  0  0  0  0  0  0  0  0  0  0
    3.9914   45.1469   54.8906 H   0  0  0  0  0  0  0  0  0  0  0  0
    9.6579   48.6646   52.3349 H   0  0  0  0  0  0  0  0  0  0  0  0
   11.2634   46.8690   51.7080 H   0  0  0  0  0  0  0  0  0  0  0  0
   10.4459   44.5569   51.2723 H   0  0  0  0  0  0  0  0  0  0  0  0
    8.5540   43.8853   49.4534 H   0  0  0  0  0  0  0  0  0  0  0  0
    8.5291   42.2589   50.1797 H   0  0  0  0  0  0  0  0  0  0  0  0
    6.3140   43.9811   49.9700 H   0  0  0  0  0  0  0  0  0  0  0  0
    6.5642   40.7642   49.9302 H   0  0  0  0  0  0  0  0  0  0  0  0
    5.0658   41.1828   49.9370 H   0  0  0  0  0  0  0  0  0  0  0  0
    7.2680   41.9028   47.6959 H   0  0  0  0  0  0  0  0  0  0  0  0
    5.8926   42.5205   47.3120 H   0  0  0  0  0  0  0  0  0  0  0  0
  1  2  2  0
  2  3  1  0
  3  4  1  0
  4  5  1  0
  5  6  2  0
  6  7  1  0
  7  8  2  0
  8  9  1  0
  9 10  2  0
 10 11  1  0
 11 12  1  0
  2 13  1  0
 13 14  2  0
 14 15  1  0
 14 16  1  0
 16 17  2  0
 17 18  1  0
 18 19  2  0
 19 20  1  0
 20 21  1  0
 21 22  1  0
 22 23  1  0
 23 24  1  0
 12  4  2  0
 19 13  1  0
 24 22  1  0
 11  7  1  0
  3 25  1  0
  5 26  1  0
  6 27  1  0
 10 28  1  0
 12 29  1  0
 16 30  1  0
 17 31  1  0
 18 32  1  0
 21 33  1  0
 21 34  1  0
 22 35  1  0
 23 36  1  0
 23 37  1  0
 24 38  1  0
 24 39  1  0
M  END
>  <meeko>  (6) 
{"is_sidechain": false}

>  <CID>  (6) 
Z3590543759

>  <pose_index>  (6) 
8

>  <docking_score>  (6) 
-7.868

>  <rmsd_to_best_selected>  (6) 
0.9612900556709224

>  <MWT>  (6) 
342.78599999999983

>  <TPSA>  (6) 
68.52000000000001

>  <logP>  (6) 
3.4238000000000017

>  <HBD>  (6) 
1

>  <HBA>  (6) 
5

>  <SMILES>  (6) 
[H]c1c([H])c(Cl)c(C(=O)N([H])c2c([H])c([H])c3nnc([H])n3c2[H])c(OC([H])([H])C2([H])C([H])([H])C2([H])[H])c1[H]

$$$$
Z3590543759_pose9
     RDKit          3D

 39 42  0  0  0  0  0  0  0  0999 V2000
    6.6580   44.9145   54.5031 O   0  0  0  0  0  0  0  0  0  0  0  0
    6.6380   45.1376   53.2988 C   0  0  0  0  0  0  0  0  0  0  0  0
    5.5581   44.9158   52.4577 N   0  0  0  0  0  0  0  0  0  0  0  0
    4.3339   44.3745   52.7736 C   0  0  0  0  0  0  0  0  0  0  0  0
    4.2216   42.9143   52.7004 C   0  0  0  0  0  0  0  0  0  0  0  0
    3.0733   42.2682   52.9871 C   0  0  0  0  0  0  0  0  0  0  0  0
    1.9319   43.0180   53.3757 C   0  0  0  0  0  0  0  0  0  0  0  0
    0.7050   42.6815   53.7096 N   0  0  0  0  0  0  0  0  0  0  0  0
    0.0167   43.8407   53.9978 N   0  0  0  0  0  0  0  0  0  0  0  0
    0.8426   44.8513   53.8320 C   0  0  0  0  0  0  0  0  0  0  0  0
    2.0682   44.3929   53.4394 N   0  0  0  0  0  0  0  0  0  0  0  0
    3.2446   45.0734   53.1472 C   0  0  0  0  0  0  0  0  0  0  0  0
    7.8475   45.7171   52.6413 C   0  0  0  0  0  0  0  0  0  0  0  0
    8.3337   46.9718   53.0433 C   0  0  0  0  0  0  0  0  0  0  0  0
    7.6908   47.8612   54.3819 Cl  0  0  0  0  0  0  0  0  0  0  0  0
    9.4332   47.5390   52.3915 C   0  0  0  0  0  0  0  0  0  0  0  0
   10.0568   46.8633   51.3473 C   0  0  0  0  0  0  0  0  0  0  0  0
    9.5943   45.6089   50.9524 C   0  0  0  0  0  0  0  0  0  0  0  0
    8.4925   45.0250   51.5896 C   0  0  0  0  0  0  0  0  0  0  0  0
    8.0014   43.7868   51.2706 O   0  0  0  0  0  0  0  0  0  0  0  0
    7.5548   43.5537   49.9356 C   0  0  0  0  0  0  0  0  0  0  0  0
    6.5869   42.4108   49.9788 C   0  0  0  0  0  0  0  0  0  0  0  0
    6.7076   41.2669   49.0052 C   0  0  0  0  0  0  0  0  0  0  0  0
    5.5566   42.2308   48.8947 C   0  0  0  0  0  0  0  0  0  0  0  0
    5.6577   45.2890   51.5193 H   0  0  0  0  0  0  0  0  0  0  0  0
    5.1025   42.3270   52.4019 H   0  0  0  0  0  0  0  0  0  0  0  0
    3.0213   41.1714   52.9206 H   0  0  0  0  0  0  0  0  0  0  0  0
    0.5844   45.9093   53.9866 H   0  0  0  0  0  0  0  0  0  0  0  0
    3.2854   46.1703   53.2202 H   0  0  0  0  0  0  0  0  0  0  0  0
    9.8070   48.5246   52.7059 H   0  0  0  0  0  0  0  0  0  0  0  0
   10.9154   47.3194   50.8328 H   0  0  0  0  0  0  0  0  0  0  0  0
   10.0987   45.0737   50.1344 H   0  0  0  0  0  0  0  0  0  0  0  0
    7.0573   44.4529   49.5434 H   0  0  0  0  0  0  0  0  0  0  0  0
    8.4045   43.3177   49.2780 H   0  0  0  0  0  0  0  0  0  0  0  0
    6.5538   42.5018   51.0745 H   0  0  0  0  0  0  0  0  0  0  0  0
    7.5041   41.2721   48.2466 H   0  0  0  0  0  0  0  0  0  0  0  0
    6.8014   40.1747   49.0963 H   0  0  0  0  0  0  0  0  0  0  0  0
    5.5120   42.9401   48.0551 H   0  0  0  0  0  0  0  0  0  0  0  0
    4.4610   42.1343   48.8715 H   0  0  0  0  0  0  0  0  0  0  0  0
  1  2  2  0
  2  3  1  0
  3  4  1  0
  4  5  1  0
  5  6  2  0
  6  7  1  0
  7  8  2  0
  8  9  1  0
  9 10  2  0
 10 11  1  0
 11 12  1  0
  2 13  1  0
 13 14  2  0
 14 15  1  0
 14 16  1  0
 16 17  2  0
 17 18  1  0
 18 19  2  0
 19 20  1  0
 20 21  1  0
 21 22  1  0
 22 23  1  0
 23 24  1  0
 12  4  2  0
 19 13  1  0
 24 22  1  0
 11  7  1  0
  3 25  1  0
  5 26  1  0
  6 27  1  0
 10 28  1  0
 12 29  1  0
 16 30  1  0
 17 31  1  0
 18 32  1  0
 21 33  1  0
 21 34  1  0
 22 35  1  0
 23 36  1  0
 23 37  1  0
 24 38  1  0
 24 39  1  0
M  END
>  <meeko>  (7) 
{"is_sidechain": false}

>  <CID>  (7) 
Z3590543759

>  <pose_index>  (7) 
9

>  <docking_score>  (7) 
-7.815

>  <rmsd_to_best_selected>  (7) 
1.2854697464010243

>  <MWT>  (7) 
342.78599999999983

>  <TPSA>  (7) 
68.52000000000001

>  <logP>  (7) 
3.4238000000000017

>  <HBD>  (7) 
1

>  <HBA>  (7) 
5

>  <SMILES>  (7) 
[H]c1c([H])c(Cl)c(C(=O)N([H])c2c([H])c([H])c3nnc([H])n3c2[H])c(OC([H])([H])C2([H])C([H])([H])C2([H])[H])c1[H]

$$$$
