Z3950664500_pose1
     RDKit          3D

 46 49  0  0  0  0  0  0  0  0999 V2000
    1.6570   36.9420   46.7830 C   0  0  0  0  0  0  0  0  0  0  0  0
    2.7980   37.9420   46.7640 C   0  0  0  0  0  0  0  0  0  0  0  0
    2.7830   38.7340   47.9620 O   0  0  0  0  0  0  0  0  0  0  0  0
    3.3010   39.9880   47.8530 C   0  0  0  0  0  0  0  0  0  0  0  0
    3.0490   40.7560   46.9380 O   0  0  0  0  0  0  0  0  0  0  0  0
    4.1110   40.2000   48.9330 N   0  0  0  0  0  0  0  0  0  0  0  0
    4.8560   41.3450   49.2560 C   0  0  0  0  0  0  0  0  0  0  0  0
    5.8970   41.8410   48.4750 C   0  0  0  0  0  0  0  0  0  0  0  0
    6.5920   42.9940   48.8700 C   0  0  0  0  0  0  0  0  0  0  0  0
    6.2830   43.6610   50.0630 C   0  0  0  0  0  0  0  0  0  0  0  0
    6.9680   44.8540   50.3780 N   0  0  0  0  0  0  0  0  0  0  0  0
    6.7610   45.7370   51.4740 C   0  0  0  0  0  0  0  0  0  0  0  0
    5.5070   46.0660   51.8290 N   0  0  0  0  0  0  0  0  0  0  0  0
    5.3300   46.8860   52.8790 C   0  0  0  0  0  0  0  0  0  0  0  0
    3.9210   47.2530   53.2760 C   0  0  0  0  0  0  0  0  0  0  0  0
    2.8380   46.1990   53.3140 C   0  0  0  0  0  0  0  0  0  0  0  0
    2.8190   47.2450   52.2400 C   0  0  0  0  0  0  0  0  0  0  0  0
    6.3460   47.3860   53.6020 N   0  0  0  0  0  0  0  0  0  0  0  0
    7.5920   47.0690   53.2450 C   0  0  0  0  0  0  0  0  0  0  0  0
    8.6460   47.5940   53.9840 C   0  0  0  0  0  0  0  0  0  0  0  0
    9.9800   47.3210   53.6690 C   0  0  0  0  0  0  0  0  0  0  0  0
   10.2780   46.5080   52.5850 C   0  0  0  0  0  0  0  0  0  0  0  0
    9.2370   45.9690   51.8310 C   0  0  0  0  0  0  0  0  0  0  0  0
    7.8820   46.2370   52.1600 C   0  0  0  0  0  0  0  0  0  0  0  0
    5.2110   43.1760   50.8160 C   0  0  0  0  0  0  0  0  0  0  0  0
    4.5150   42.0240   50.4280 C   0  0  0  0  0  0  0  0  0  0  0  0
    1.3910   36.7089   47.8246 H   0  0  0  0  0  0  0  0  0  0  0  0
    0.7844   37.3715   46.2691 H   0  0  0  0  0  0  0  0  0  0  0  0
    1.9684   36.0206   46.2691 H   0  0  0  0  0  0  0  0  0  0  0  0
    3.7538   37.4016   46.6976 H   0  0  0  0  0  0  0  0  0  0  0  0
    2.6802   38.6047   45.8940 H   0  0  0  0  0  0  0  0  0  0  0  0
    4.1540   39.4130   49.5630 H   0  0  0  0  0  0  0  0  0  0  0  0
    6.1757   41.3262   47.5437 H   0  0  0  0  0  0  0  0  0  0  0  0
    7.3971   43.3829   48.2292 H   0  0  0  0  0  0  0  0  0  0  0  0
    7.9660   44.7570   50.2240 H   0  0  0  0  0  0  0  0  0  0  0  0
    4.3180   47.9872   53.9925 H   0  0  0  0  0  0  0  0  0  0  0  0
    3.0778   45.1558   53.0604 H   0  0  0  0  0  0  0  0  0  0  0  0
    2.1199   45.8511   54.0712 H   0  0  0  0  0  0  0  0  0  0  0  0
    3.0451   46.9683   51.1997 H   0  0  0  0  0  0  0  0  0  0  0  0
    2.0816   47.9801   51.8852 H   0  0  0  0  0  0  0  0  0  0  0  0
    8.4232   48.2441   54.8429 H   0  0  0  0  0  0  0  0  0  0  0  0
   10.7901   47.7488   54.2779 H   0  0  0  0  0  0  0  0  0  0  0  0
   11.3242   46.2912   52.3235 H   0  0  0  0  0  0  0  0  0  0  0  0
    9.4685   45.3267   50.9686 H   0  0  0  0  0  0  0  0  0  0  0  0
    4.9081   43.7082   51.7298 H   0  0  0  0  0  0  0  0  0  0  0  0
    3.6908   41.6500   51.0532 H   0  0  0  0  0  0  0  0  0  0  0  0
  1  2  1  0
  2  3  1  0
  3  4  1  0
  4  5  2  0
  4  6  1  0
  6  7  1  0
  7  8  2  0
  8  9  1  0
  9 10  2  0
 10 11  1  0
 11 12  1  0
 12 13  2  0
 13 14  1  0
 14 15  1  0
 15 16  1  0
 16 17  1  0
 14 18  2  0
 18 19  1  0
 19 20  2  0
 20 21  1  0
 21 22  2  0
 22 23  1  0
 23 24  2  0
 10 25  1  0
 25 26  2  0
 26  7  1  0
 24 12  1  0
 17 15  1  0
 24 19  1  0
  1 27  1  0
  1 28  1  0
  1 29  1  0
  2 30  1  0
  2 31  1  0
  6 32  1  0
  8 33  1  0
  9 34  1  0
 11 35  1  0
 15 36  1  0
 16 37  1  0
 16 38  1  0
 17 39  1  0
 17 40  1  0
 20 41  1  0
 21 42  1  0
 22 43  1  0
 23 44  1  0
 25 45  1  0
 26 46  1  0
M  END
>  <meeko>  (1) 
{"is_sidechain": false}

>  <CID>  (1) 
Z3950664500

>  <pose_index>  (1) 
1

>  <docking_score>  (1) 
-9.497

>  <rmsd_to_best_selected>  (1) 
0.0

>  <MWT>  (1) 
348.4059999999998

>  <TPSA>  (1) 
76.14

>  <logP>  (1) 
4.819200000000003

>  <HBD>  (1) 
2

>  <HBA>  (1) 
5

>  <SMILES>  (1) 
[H]c1c([H])c(N([H])c2nc(C3([H])C([H])([H])C3([H])[H])nc3c([H])c([H])c([H])c([H])c23)c([H])c([H])c1N([H])C(=O)OC([H])([H])C([H])([H])[H]

$$$$
Z3950664500_pose2
     RDKit          3D

 46 49  0  0  0  0  0  0  0  0999 V2000
    1.6895   37.9098   46.5395 C   0  0  0  0  0  0  0  0  0  0  0  0
    2.8368   38.4574   47.3683 C   0  0  0  0  0  0  0  0  0  0  0  0
    3.8036   39.0919   46.5168 O   0  0  0  0  0  0  0  0  0  0  0  0
    4.8262   39.7310   47.1498 C   0  0  0  0  0  0  0  0  0  0  0  0
    5.9913   39.6865   46.7876 O   0  0  0  0  0  0  0  0  0  0  0  0
    4.3005   40.4063   48.2149 N   0  0  0  0  0  0  0  0  0  0  0  0
    4.9645   41.2085   49.1558 C   0  0  0  0  0  0  0  0  0  0  0  0
    5.7504   42.3099   48.8221 C   0  0  0  0  0  0  0  0  0  0  0  0
    6.3807   43.0598   49.8255 C   0  0  0  0  0  0  0  0  0  0  0  0
    6.2646   42.7156   51.1788 C   0  0  0  0  0  0  0  0  0  0  0  0
    6.8635   43.5444   52.1518 N   0  0  0  0  0  0  0  0  0  0  0  0
    6.6255   44.9218   52.4158 C   0  0  0  0  0  0  0  0  0  0  0  0
    5.4076   45.3145   52.8295 N   0  0  0  0  0  0  0  0  0  0  0  0
    5.2065   46.6163   53.0934 C   0  0  0  0  0  0  0  0  0  0  0  0
    3.8399   47.0540   53.5575 C   0  0  0  0  0  0  0  0  0  0  0  0
    2.5974   46.5698   52.8427 C   0  0  0  0  0  0  0  0  0  0  0  0
    3.0217   48.0016   52.7091 C   0  0  0  0  0  0  0  0  0  0  0  0
    6.1676   47.5483   52.9773 N   0  0  0  0  0  0  0  0  0  0  0  0
    7.3745   47.1621   52.5572 C   0  0  0  0  0  0  0  0  0  0  0  0
    8.3680   48.1258   52.4240 C   0  0  0  0  0  0  0  0  0  0  0  0
    9.6542   47.8077   51.9793 C   0  0  0  0  0  0  0  0  0  0  0  0
    9.9619   46.4955   51.6509 C   0  0  0  0  0  0  0  0  0  0  0  0
    8.9823   45.5129   51.7786 C   0  0  0  0  0  0  0  0  0  0  0  0
    7.6803   45.8359   52.2431 C   0  0  0  0  0  0  0  0  0  0  0  0
    5.4414   41.6330   51.5019 C   0  0  0  0  0  0  0  0  0  0  0  0
    4.8110   40.8791   50.5043 C   0  0  0  0  0  0  0  0  0  0  0  0
    2.0186   37.7808   45.4978 H   0  0  0  0  0  0  0  0  0  0  0  0
    1.3736   36.9382   46.9472 H   0  0  0  0  0  0  0  0  0  0  0  0
    0.8447   38.6134   46.5726 H   0  0  0  0  0  0  0  0  0  0  0  0
    2.4472   39.1931   48.0873 H   0  0  0  0  0  0  0  0  0  0  0  0
    3.3203   37.6280   47.9053 H   0  0  0  0  0  0  0  0  0  0  0  0
    3.3016   40.2958   48.3071 H   0  0  0  0  0  0  0  0  0  0  0  0
    5.8770   42.5924   47.7666 H   0  0  0  0  0  0  0  0  0  0  0  0
    6.9799   43.9382   49.5438 H   0  0  0  0  0  0  0  0  0  0  0  0
    6.9699   43.0584   53.0348 H   0  0  0  0  0  0  0  0  0  0  0  0
    4.1941   47.0413   54.5988 H   0  0  0  0  0  0  0  0  0  0  0  0
    2.6881   45.8877   51.9845 H   0  0  0  0  0  0  0  0  0  0  0  0
    1.6732   46.0597   53.1518 H   0  0  0  0  0  0  0  0  0  0  0  0
    3.4231   48.3685   51.7529 H   0  0  0  0  0  0  0  0  0  0  0  0
    2.5365   48.9739   52.8799 H   0  0  0  0  0  0  0  0  0  0  0  0
    8.1344   49.1707   52.6764 H   0  0  0  0  0  0  0  0  0  0  0  0
   10.4185   48.5937   51.8902 H   0  0  0  0  0  0  0  0  0  0  0  0
   10.9686   46.2336   51.2934 H   0  0  0  0  0  0  0  0  0  0  0  0
    9.2214   44.4719   51.5158 H   0  0  0  0  0  0  0  0  0  0  0  0
    5.2862   41.3687   52.5583 H   0  0  0  0  0  0  0  0  0  0  0  0
    4.1877   40.0176   50.7860 H   0  0  0  0  0  0  0  0  0  0  0  0
  1  2  1  0
  2  3  1  0
  3  4  1  0
  4  5  2  0
  4  6  1  0
  6  7  1  0
  7  8  2  0
  8  9  1  0
  9 10  2  0
 10 11  1  0
 11 12  1  0
 12 13  2  0
 13 14  1  0
 14 15  1  0
 15 16  1  0
 16 17  1  0
 14 18  2  0
 18 19  1  0
 19 20  2  0
 20 21  1  0
 21 22  2  0
 22 23  1  0
 23 24  2  0
 10 25  1  0
 25 26  2  0
 26  7  1  0
 24 12  1  0
 17 15  1  0
 24 19  1  0
  1 27  1  0
  1 28  1  0
  1 29  1  0
  2 30  1  0
  2 31  1  0
  6 32  1  0
  8 33  1  0
  9 34  1  0
 11 35  1  0
 15 36  1  0
 16 37  1  0
 16 38  1  0
 17 39  1  0
 17 40  1  0
 20 41  1  0
 21 42  1  0
 22 43  1  0
 23 44  1  0
 25 45  1  0
 26 46  1  0
M  END
>  <meeko>  (2) 
{"is_sidechain": false}

>  <CID>  (2) 
Z3950664500

>  <pose_index>  (2) 
2

>  <docking_score>  (2) 
-9.311

>  <rmsd_to_best_selected>  (2) 
1.535095850563162

>  <MWT>  (2) 
348.4059999999998

>  <TPSA>  (2) 
76.14

>  <logP>  (2) 
4.819200000000003

>  <HBD>  (2) 
2

>  <HBA>  (2) 
5

>  <SMILES>  (2) 
[H]c1c([H])c(N([H])c2nc(C3([H])C([H])([H])C3([H])[H])nc3c([H])c([H])c([H])c([H])c23)c([H])c([H])c1N([H])C(=O)OC([H])([H])C([H])([H])[H]

$$$$
Z3950664500_pose3
     RDKit          3D

 46 49  0  0  0  0  0  0  0  0999 V2000
    2.8514   37.8056   45.8533 C   0  0  0  0  0  0  0  0  0  0  0  0
    3.0788   38.2633   47.2825 C   0  0  0  0  0  0  0  0  0  0  0  0
    2.0771   39.2197   47.6621 O   0  0  0  0  0  0  0  0  0  0  0  0
    2.5359   40.3674   48.2319 C   0  0  0  0  0  0  0  0  0  0  0  0
    1.9281   41.4270   48.2242 O   0  0  0  0  0  0  0  0  0  0  0  0
    3.7515   40.0972   48.7943 N   0  0  0  0  0  0  0  0  0  0  0  0
    4.6023   40.9654   49.4955 C   0  0  0  0  0  0  0  0  0  0  0  0
    5.5417   41.7952   48.8865 C   0  0  0  0  0  0  0  0  0  0  0  0
    6.3542   42.6337   49.6627 C   0  0  0  0  0  0  0  0  0  0  0  0
    6.2696   42.6462   51.0608 C   0  0  0  0  0  0  0  0  0  0  0  0
    7.0645   43.5587   51.7876 N   0  0  0  0  0  0  0  0  0  0  0  0
    6.7614   44.8943   52.1705 C   0  0  0  0  0  0  0  0  0  0  0  0
    5.5233   45.1944   52.6003 N   0  0  0  0  0  0  0  0  0  0  0  0
    5.2607   46.4573   52.9753 C   0  0  0  0  0  0  0  0  0  0  0  0
    3.8711   46.7900   53.4578 C   0  0  0  0  0  0  0  0  0  0  0  0
    2.7238   46.8904   52.4774 C   0  0  0  0  0  0  0  0  0  0  0  0
    3.2577   48.1323   53.1254 C   0  0  0  0  0  0  0  0  0  0  0  0
    6.1794   47.4372   52.9562 N   0  0  0  0  0  0  0  0  0  0  0  0
    7.4066   47.1446   52.5209 C   0  0  0  0  0  0  0  0  0  0  0  0
    8.3570   48.1591   52.4868 C   0  0  0  0  0  0  0  0  0  0  0  0
    9.6607   47.9386   52.0338 C   0  0  0  0  0  0  0  0  0  0  0  0
   10.0302   46.6757   51.5937 C   0  0  0  0  0  0  0  0  0  0  0  0
    9.0956   45.6439   51.6203 C   0  0  0  0  0  0  0  0  0  0  0  0
    7.7754   45.8654   52.0937 C   0  0  0  0  0  0  0  0  0  0  0  0
    5.2981   41.8371   51.6563 C   0  0  0  0  0  0  0  0  0  0  0  0
    4.4845   40.9970   50.8871 C   0  0  0  0  0  0  0  0  0  0  0  0
    3.8150   37.7622   45.3245 H   0  0  0  0  0  0  0  0  0  0  0  0
    2.3899   36.8071   45.8570 H   0  0  0  0  0  0  0  0  0  0  0  0
    2.1846   38.5159   45.3425 H   0  0  0  0  0  0  0  0  0  0  0  0
    3.0251   37.3945   47.9552 H   0  0  0  0  0  0  0  0  0  0  0  0
    4.0703   38.7339   47.3554 H   0  0  0  0  0  0  0  0  0  0  0  0
    4.0443   39.1387   48.6763 H   0  0  0  0  0  0  0  0  0  0  0  0
    5.6463   41.7923   47.7914 H   0  0  0  0  0  0  0  0  0  0  0  0
    7.0747   43.2972   49.1621 H   0  0  0  0  0  0  0  0  0  0  0  0
    7.5394   43.0996   52.5589 H   0  0  0  0  0  0  0  0  0  0  0  0
    4.0594   46.2209   54.3800 H   0  0  0  0  0  0  0  0  0  0  0  0
    2.8994   46.7109   51.4064 H   0  0  0  0  0  0  0  0  0  0  0  0
    1.7312   46.4239   52.3940 H   0  0  0  0  0  0  0  0  0  0  0  0
    3.8244   48.8627   52.5294 H   0  0  0  0  0  0  0  0  0  0  0  0
    2.8178   48.9516   53.7131 H   0  0  0  0  0  0  0  0  0  0  0  0
    8.0740   49.1662   52.8269 H   0  0  0  0  0  0  0  0  0  0  0  0
   10.3900   48.7620   52.0262 H   0  0  0  0  0  0  0  0  0  0  0  0
   11.0510   46.4914   51.2276 H   0  0  0  0  0  0  0  0  0  0  0  0
    9.3844   44.6422   51.2692 H   0  0  0  0  0  0  0  0  0  0  0  0
    5.1705   41.8609   52.7487 H   0  0  0  0  0  0  0  0  0  0  0  0
    3.7434   40.3539   51.3844 H   0  0  0  0  0  0  0  0  0  0  0  0
  1  2  1  0
  2  3  1  0
  3  4  1  0
  4  5  2  0
  4  6  1  0
  6  7  1  0
  7  8  2  0
  8  9  1  0
  9 10  2  0
 10 11  1  0
 11 12  1  0
 12 13  2  0
 13 14  1  0
 14 15  1  0
 15 16  1  0
 16 17  1  0
 14 18  2  0
 18 19  1  0
 19 20  2  0
 20 21  1  0
 21 22  2  0
 22 23  1  0
 23 24  2  0
 10 25  1  0
 25 26  2  0
 26  7  1  0
 24 12  1  0
 17 15  1  0
 24 19  1  0
  1 27  1  0
  1 28  1  0
  1 29  1  0
  2 30  1  0
  2 31  1  0
  6 32  1  0
  8 33  1  0
  9 34  1  0
 11 35  1  0
 15 36  1  0
 16 37  1  0
 16 38  1  0
 17 39  1  0
 17 40  1  0
 20 41  1  0
 21 42  1  0
 22 43  1  0
 23 44  1  0
 25 45  1  0
 26 46  1  0
M  END
>  <meeko>  (3) 
{"is_sidechain": false}

>  <CID>  (3) 
Z3950664500

>  <pose_index>  (3) 
3

>  <docking_score>  (3) 
-9.238

>  <rmsd_to_best_selected>  (3) 
1.53984575444497

>  <MWT>  (3) 
348.4059999999998

>  <TPSA>  (3) 
76.14

>  <logP>  (3) 
4.819200000000003

>  <HBD>  (3) 
2

>  <HBA>  (3) 
5

>  <SMILES>  (3) 
[H]c1c([H])c(N([H])c2nc(C3([H])C([H])([H])C3([H])[H])nc3c([H])c([H])c([H])c([H])c23)c([H])c([H])c1N([H])C(=O)OC([H])([H])C([H])([H])[H]

$$$$
Z3950664500_pose4
     RDKit          3D

 46 49  0  0  0  0  0  0  0  0999 V2000
    2.9227   38.0586   45.7814 C   0  0  0  0  0  0  0  0  0  0  0  0
    3.1533   38.4467   47.2306 C   0  0  0  0  0  0  0  0  0  0  0  0
    2.0798   39.2762   47.6990 O   0  0  0  0  0  0  0  0  0  0  0  0
    2.4319   40.2873   48.5396 C   0  0  0  0  0  0  0  0  0  0  0  0
    1.6385   41.0710   49.0379 O   0  0  0  0  0  0  0  0  0  0  0  0
    3.7861   40.2378   48.7079 N   0  0  0  0  0  0  0  0  0  0  0  0
    4.6015   41.0727   49.4880 C   0  0  0  0  0  0  0  0  0  0  0  0
    5.5161   41.9819   48.9591 C   0  0  0  0  0  0  0  0  0  0  0  0
    6.2936   42.7799   49.8101 C   0  0  0  0  0  0  0  0  0  0  0  0
    6.1977   42.6736   51.2040 C   0  0  0  0  0  0  0  0  0  0  0  0
    6.9543   43.5480   52.0117 N   0  0  0  0  0  0  0  0  0  0  0  0
    6.7264   44.9249   52.2911 C   0  0  0  0  0  0  0  0  0  0  0  0
    5.5078   45.3237   52.6965 N   0  0  0  0  0  0  0  0  0  0  0  0
    5.3159   46.6231   52.9735 C   0  0  0  0  0  0  0  0  0  0  0  0
    3.9482   47.0675   53.4298 C   0  0  0  0  0  0  0  0  0  0  0  0
    2.7038   46.4791   52.8033 C   0  0  0  0  0  0  0  0  0  0  0  0
    3.0806   47.8996   52.5122 C   0  0  0  0  0  0  0  0  0  0  0  0
    6.2858   47.5476   52.8784 N   0  0  0  0  0  0  0  0  0  0  0  0
    7.4936   47.1554   52.4656 C   0  0  0  0  0  0  0  0  0  0  0  0
    8.4971   48.1121   52.3537 C   0  0  0  0  0  0  0  0  0  0  0  0
    9.7850   47.7867   51.9186 C   0  0  0  0  0  0  0  0  0  0  0  0
   10.0837   46.4762   51.5775 C   0  0  0  0  0  0  0  0  0  0  0  0
    9.0950   45.5014   51.6831 C   0  0  0  0  0  0  0  0  0  0  0  0
    7.7912   45.8303   52.1387 C   0  0  0  0  0  0  0  0  0  0  0  0
    5.2501   41.7854   51.7198 C   0  0  0  0  0  0  0  0  0  0  0  0
    4.4712   40.9844   50.8760 C   0  0  0  0  0  0  0  0  0  0  0  0
    3.7989   38.3448   45.1812 H   0  0  0  0  0  0  0  0  0  0  0  0
    2.7705   36.9713   45.7127 H   0  0  0  0  0  0  0  0  0  0  0  0
    2.0314   38.5784   45.4000 H   0  0  0  0  0  0  0  0  0  0  0  0
    3.2046   37.5367   47.8466 H   0  0  0  0  0  0  0  0  0  0  0  0
    4.0978   39.0055   47.3064 H   0  0  0  0  0  0  0  0  0  0  0  0
    4.2275   39.4895   48.1943 H   0  0  0  0  0  0  0  0  0  0  0  0
    5.6283   42.0739   47.8687 H   0  0  0  0  0  0  0  0  0  0  0  0
    6.9951   43.5060   49.3735 H   0  0  0  0  0  0  0  0  0  0  0  0
    7.2592   43.0902   52.8652 H   0  0  0  0  0  0  0  0  0  0  0  0
    4.3284   47.1709   54.4568 H   0  0  0  0  0  0  0  0  0  0  0  0
    2.7934   45.7150   52.0171 H   0  0  0  0  0  0  0  0  0  0  0  0
    1.8033   45.9785   53.1888 H   0  0  0  0  0  0  0  0  0  0  0  0
    3.4465   48.1769   51.5126 H   0  0  0  0  0  0  0  0  0  0  0  0
    2.5705   48.8706   52.5961 H   0  0  0  0  0  0  0  0  0  0  0  0
    8.2704   49.1562   52.6155 H   0  0  0  0  0  0  0  0  0  0  0  0
   10.5578   48.5662   51.8473 H   0  0  0  0  0  0  0  0  0  0  0  0
   11.0916   46.2093   51.2269 H   0  0  0  0  0  0  0  0  0  0  0  0
    9.3274   44.4616   51.4096 H   0  0  0  0  0  0  0  0  0  0  0  0
    5.1135   41.7142   52.8090 H   0  0  0  0  0  0  0  0  0  0  0  0
    3.7489   40.2779   51.3108 H   0  0  0  0  0  0  0  0  0  0  0  0
  1  2  1  0
  2  3  1  0
  3  4  1  0
  4  5  2  0
  4  6  1  0
  6  7  1  0
  7  8  2  0
  8  9  1  0
  9 10  2  0
 10 11  1  0
 11 12  1  0
 12 13  2  0
 13 14  1  0
 14 15  1  0
 15 16  1  0
 16 17  1  0
 14 18  2  0
 18 19  1  0
 19 20  2  0
 20 21  1  0
 21 22  2  0
 22 23  1  0
 23 24  2  0
 10 25  1  0
 25 26  2  0
 26  7  1  0
 24 12  1  0
 17 15  1  0
 24 19  1  0
  1 27  1  0
  1 28  1  0
  1 29  1  0
  2 30  1  0
  2 31  1  0
  6 32  1  0
  8 33  1  0
  9 34  1  0
 11 35  1  0
 15 36  1  0
 16 37  1  0
 16 38  1  0
 17 39  1  0
 17 40  1  0
 20 41  1  0
 21 42  1  0
 22 43  1  0
 23 44  1  0
 25 45  1  0
 26 46  1  0
M  END
>  <meeko>  (4) 
{"is_sidechain": false}

>  <CID>  (4) 
Z3950664500

>  <pose_index>  (4) 
4

>  <docking_score>  (4) 
-9.006

>  <rmsd_to_best_selected>  (4) 
1.5248662629064385

>  <MWT>  (4) 
348.4059999999998

>  <TPSA>  (4) 
76.14

>  <logP>  (4) 
4.819200000000003

>  <HBD>  (4) 
2

>  <HBA>  (4) 
5

>  <SMILES>  (4) 
[H]c1c([H])c(N([H])c2nc(C3([H])C([H])([H])C3([H])[H])nc3c([H])c([H])c([H])c([H])c23)c([H])c([H])c1N([H])C(=O)OC([H])([H])C([H])([H])[H]

$$$$
Z3950664500_pose5
     RDKit          3D

 46 49  0  0  0  0  0  0  0  0999 V2000
    1.1219   38.5408   47.7262 C   0  0  0  0  0  0  0  0  0  0  0  0
    2.3071   39.3062   47.1670 C   0  0  0  0  0  0  0  0  0  0  0  0
    3.4840   38.4844   47.1910 O   0  0  0  0  0  0  0  0  0  0  0  0
    4.6027   39.0610   47.7108 C   0  0  0  0  0  0  0  0  0  0  0  0
    5.7335   38.6305   47.5479 O   0  0  0  0  0  0  0  0  0  0  0  0
    4.2155   40.1691   48.4081 N   0  0  0  0  0  0  0  0  0  0  0  0
    5.0158   41.0837   49.1123 C   0  0  0  0  0  0  0  0  0  0  0  0
    5.7625   42.0907   48.5060 C   0  0  0  0  0  0  0  0  0  0  0  0
    6.5369   42.9636   49.2839 C   0  0  0  0  0  0  0  0  0  0  0  0
    6.6051   42.8362   50.6777 C   0  0  0  0  0  0  0  0  0  0  0  0
    7.3449   43.7836   51.4170 N   0  0  0  0  0  0  0  0  0  0  0  0
    6.9187   45.0353   51.9418 C   0  0  0  0  0  0  0  0  0  0  0  0
    5.6025   45.2895   52.0557 N   0  0  0  0  0  0  0  0  0  0  0  0
    5.2183   46.4691   52.5708 C   0  0  0  0  0  0  0  0  0  0  0  0
    3.7417   46.7513   52.6995 C   0  0  0  0  0  0  0  0  0  0  0  0
    2.7270   45.8034   52.1007 C   0  0  0  0  0  0  0  0  0  0  0  0
    2.9409   47.1515   51.4807 C   0  0  0  0  0  0  0  0  0  0  0  0
    6.0846   47.4067   52.9907 N   0  0  0  0  0  0  0  0  0  0  0  0
    7.3900   47.1614   52.8685 C   0  0  0  0  0  0  0  0  0  0  0  0
    8.2893   48.1343   53.2903 C   0  0  0  0  0  0  0  0  0  0  0  0
    9.6723   47.9601   53.1862 C   0  0  0  0  0  0  0  0  0  0  0  0
   10.1788   46.7897   52.6410 C   0  0  0  0  0  0  0  0  0  0  0  0
    9.2964   45.7997   52.2126 C   0  0  0  0  0  0  0  0  0  0  0  0
    7.8913   45.9722   52.3320 C   0  0  0  0  0  0  0  0  0  0  0  0
    5.8206   41.8466   51.2758 C   0  0  0  0  0  0  0  0  0  0  0  0
    5.0466   40.9711   50.5038 C   0  0  0  0  0  0  0  0  0  0  0  0
    1.4809   37.7579   48.4105 H   0  0  0  0  0  0  0  0  0  0  0  0
    0.4638   39.2322   48.2730 H   0  0  0  0  0  0  0  0  0  0  0  0
    0.5620   38.0775   46.9005 H   0  0  0  0  0  0  0  0  0  0  0  0
    2.0917   39.6023   46.1297 H   0  0  0  0  0  0  0  0  0  0  0  0
    2.4808   40.2000   47.7843 H   0  0  0  0  0  0  0  0  0  0  0  0
    3.2184   40.3258   48.3926 H   0  0  0  0  0  0  0  0  0  0  0  0
    5.7449   42.2020   47.4118 H   0  0  0  0  0  0  0  0  0  0  0  0
    7.1033   43.7661   48.7889 H   0  0  0  0  0  0  0  0  0  0  0  0
    7.9415   43.3310   52.1020 H   0  0  0  0  0  0  0  0  0  0  0  0
    3.9139   47.1775   53.6988 H   0  0  0  0  0  0  0  0  0  0  0  0
    3.0645   44.8977   51.5756 H   0  0  0  0  0  0  0  0  0  0  0  0
    1.8542   45.2561   52.4862 H   0  0  0  0  0  0  0  0  0  0  0  0
    3.4351   47.2335   50.5014 H   0  0  0  0  0  0  0  0  0  0  0  0
    2.2895   48.0001   51.2242 H   0  0  0  0  0  0  0  0  0  0  0  0
    7.9005   49.0697   53.7190 H   0  0  0  0  0  0  0  0  0  0  0  0
   10.3561   48.7480   53.5351 H   0  0  0  0  0  0  0  0  0  0  0  0
   11.2652   46.6444   52.5478 H   0  0  0  0  0  0  0  0  0  0  0  0
    9.6935   44.8716   51.7758 H   0  0  0  0  0  0  0  0  0  0  0  0
    5.8107   41.7536   52.3718 H   0  0  0  0  0  0  0  0  0  0  0  0
    4.4564   40.1860   50.9991 H   0  0  0  0  0  0  0  0  0  0  0  0
  1  2  1  0
  2  3  1  0
  3  4  1  0
  4  5  2  0
  4  6  1  0
  6  7  1  0
  7  8  2  0
  8  9  1  0
  9 10  2  0
 10 11  1  0
 11 12  1  0
 12 13  2  0
 13 14  1  0
 14 15  1  0
 15 16  1  0
 16 17  1  0
 14 18  2  0
 18 19  1  0
 19 20  2  0
 20 21  1  0
 21 22  2  0
 22 23  1  0
 23 24  2  0
 10 25  1  0
 25 26  2  0
 26  7  1  0
 24 12  1  0
 17 15  1  0
 24 19  1  0
  1 27  1  0
  1 28  1  0
  1 29  1  0
  2 30  1  0
  2 31  1  0
  6 32  1  0
  8 33  1  0
  9 34  1  0
 11 35  1  0
 15 36  1  0
 16 37  1  0
 16 38  1  0
 17 39  1  0
 17 40  1  0
 20 41  1  0
 21 42  1  0
 22 43  1  0
 23 44  1  0
 25 45  1  0
 26 46  1  0
M  END
>  <meeko>  (5) 
{"is_sidechain": false}

>  <CID>  (5) 
Z3950664500

>  <pose_index>  (5) 
5

>  <docking_score>  (5) 
-8.905

>  <rmsd_to_best_selected>  (5) 
1.4147008245505097

>  <MWT>  (5) 
348.4059999999998

>  <TPSA>  (5) 
76.14

>  <logP>  (5) 
4.819200000000003

>  <HBD>  (5) 
2

>  <HBA>  (5) 
5

>  <SMILES>  (5) 
[H]c1c([H])c(N([H])c2nc(C3([H])C([H])([H])C3([H])[H])nc3c([H])c([H])c([H])c([H])c23)c([H])c([H])c1N([H])C(=O)OC([H])([H])C([H])([H])[H]

$$$$
Z3950664500_pose8
     RDKit          3D

 46 49  0  0  0  0  0  0  0  0999 V2000
    2.6177   38.1647   46.1310 C   0  0  0  0  0  0  0  0  0  0  0  0
    3.9145   37.4138   46.3726 C   0  0  0  0  0  0  0  0  0  0  0  0
    4.9724   38.3369   46.6743 O   0  0  0  0  0  0  0  0  0  0  0  0
    5.0037   38.8091   47.9514 C   0  0  0  0  0  0  0  0  0  0  0  0
    5.1147   38.1032   48.9403 O   0  0  0  0  0  0  0  0  0  0  0  0
    4.9008   40.1701   47.8949 N   0  0  0  0  0  0  0  0  0  0  0  0
    4.8919   41.0912   48.9541 C   0  0  0  0  0  0  0  0  0  0  0  0
    3.7338   41.6459   49.4941 C   0  0  0  0  0  0  0  0  0  0  0  0
    3.8138   42.5604   50.5539 C   0  0  0  0  0  0  0  0  0  0  0  0
    5.0474   42.9638   51.0810 C   0  0  0  0  0  0  0  0  0  0  0  0
    5.0668   43.8338   52.1917 N   0  0  0  0  0  0  0  0  0  0  0  0
    5.5876   45.1557   52.2778 C   0  0  0  0  0  0  0  0  0  0  0  0
    4.8474   46.1877   51.8356 N   0  0  0  0  0  0  0  0  0  0  0  0
    5.3469   47.4295   51.9427 C   0  0  0  0  0  0  0  0  0  0  0  0
    4.5144   48.5855   51.4461 C   0  0  0  0  0  0  0  0  0  0  0  0
    4.5198   49.9058   52.1833 C   0  0  0  0  0  0  0  0  0  0  0  0
    3.3012   49.0342   52.2293 C   0  0  0  0  0  0  0  0  0  0  0  0
    6.5473   47.6965   52.4846 N   0  0  0  0  0  0  0  0  0  0  0  0
    7.2873   46.6734   52.9149 C   0  0  0  0  0  0  0  0  0  0  0  0
    8.5359   46.9440   53.4643 C   0  0  0  0  0  0  0  0  0  0  0  0
    9.3779   45.9295   53.9291 C   0  0  0  0  0  0  0  0  0  0  0  0
    8.9717   44.6058   53.8388 C   0  0  0  0  0  0  0  0  0  0  0  0
    7.7246   44.3105   53.2933 C   0  0  0  0  0  0  0  0  0  0  0  0
    6.8646   45.3432   52.8343 C   0  0  0  0  0  0  0  0  0  0  0  0
    6.1992   42.3710   50.5561 C   0  0  0  0  0  0  0  0  0  0  0  0
    6.1259   41.4588   49.4961 C   0  0  0  0  0  0  0  0  0  0  0  0
    1.7656   37.5095   46.3648 H   0  0  0  0  0  0  0  0  0  0  0  0
    2.5837   39.0549   46.7763 H   0  0  0  0  0  0  0  0  0  0  0  0
    2.5640   38.4738   45.0767 H   0  0  0  0  0  0  0  0  0  0  0  0
    3.7824   36.7232   47.2185 H   0  0  0  0  0  0  0  0  0  0  0  0
    4.1775   36.8500   45.4655 H   0  0  0  0  0  0  0  0  0  0  0  0
    4.8271   40.5286   46.9540 H   0  0  0  0  0  0  0  0  0  0  0  0
    2.7513   41.3650   49.0870 H   0  0  0  0  0  0  0  0  0  0  0  0
    2.8868   42.9703   50.9812 H   0  0  0  0  0  0  0  0  0  0  0  0
    4.1925   43.7956   52.7045 H   0  0  0  0  0  0  0  0  0  0  0  0
    4.7063   48.2718   50.4094 H   0  0  0  0  0  0  0  0  0  0  0  0
    5.1404   50.0300   53.0829 H   0  0  0  0  0  0  0  0  0  0  0  0
    4.7163   50.9509   51.9020 H   0  0  0  0  0  0  0  0  0  0  0  0
    3.0289   48.5198   53.1626 H   0  0  0  0  0  0  0  0  0  0  0  0
    2.2358   49.1768   51.9956 H   0  0  0  0  0  0  0  0  0  0  0  0
    8.8714   47.9892   53.5355 H   0  0  0  0  0  0  0  0  0  0  0  0
   10.3570   46.1791   54.3639 H   0  0  0  0  0  0  0  0  0  0  0  0
    9.6280   43.7978   54.1945 H   0  0  0  0  0  0  0  0  0  0  0  0
    7.4011   43.2620   53.2169 H   0  0  0  0  0  0  0  0  0  0  0  0
    7.1805   42.6255   50.9831 H   0  0  0  0  0  0  0  0  0  0  0  0
    7.0504   41.0268   49.0856 H   0  0  0  0  0  0  0  0  0  0  0  0
  1  2  1  0
  2  3  1  0
  3  4  1  0
  4  5  2  0
  4  6  1  0
  6  7  1  0
  7  8  2  0
  8  9  1  0
  9 10  2  0
 10 11  1  0
 11 12  1  0
 12 13  2  0
 13 14  1  0
 14 15  1  0
 15 16  1  0
 16 17  1  0
 14 18  2  0
 18 19  1  0
 19 20  2  0
 20 21  1  0
 21 22  2  0
 22 23  1  0
 23 24  2  0
 10 25  1  0
 25 26  2  0
 26  7  1  0
 24 12  1  0
 17 15  1  0
 24 19  1  0
  1 27  1  0
  1 28  1  0
  1 29  1  0
  2 30  1  0
  2 31  1  0
  6 32  1  0
  8 33  1  0
  9 34  1  0
 11 35  1  0
 15 36  1  0
 16 37  1  0
 16 38  1  0
 17 39  1  0
 17 40  1  0
 20 41  1  0
 21 42  1  0
 22 43  1  0
 23 44  1  0
 25 45  1  0
 26 46  1  0
M  END
>  <meeko>  (6) 
{"is_sidechain": false}

>  <CID>  (6) 
Z3950664500

>  <pose_index>  (6) 
8

>  <docking_score>  (6) 
-8.592

>  <rmsd_to_best_selected>  (6) 
1.9331081466223274

>  <MWT>  (6) 
348.4059999999998

>  <TPSA>  (6) 
76.14

>  <logP>  (6) 
4.819200000000003

>  <HBD>  (6) 
2

>  <HBA>  (6) 
5

>  <SMILES>  (6) 
[H]c1c([H])c(N([H])c2nc(C3([H])C([H])([H])C3([H])[H])nc3c([H])c([H])c([H])c([H])c23)c([H])c([H])c1N([H])C(=O)OC([H])([H])C([H])([H])[H]

$$$$
