Z4521998795_pose2
     RDKit          3D

 41 44  0  0  0  0  0  0  0  0999 V2000
    5.4346   46.2439   55.5949 C   0  0  0  0  0  0  0  0  0  0  0  0
    5.3168   47.3866   54.6441 C   0  0  2  0  0  0  0  0  0  0  0  0
    5.0305   47.1833   53.1688 C   0  0  2  0  0  0  0  0  0  0  0  0
    4.6640   45.8254   52.6547 C   0  0  0  0  0  0  0  0  0  0  0  0
    4.0424   45.0972   53.4184 O   0  0  0  0  0  0  0  0  0  0  0  0
    5.0605   45.4940   51.3829 N   0  0  0  0  0  0  0  0  0  0  0  0
    4.8394   44.3233   50.6133 C   0  0  0  0  0  0  0  0  0  0  0  0
    3.4794   43.9634   50.4954 C   0  0  0  0  0  0  0  0  0  0  0  0
    3.0755   42.8362   49.7789 C   0  0  0  0  0  0  0  0  0  0  0  0
    4.0276   42.0349   49.1674 C   0  0  0  0  0  0  0  0  0  0  0  0
    5.3818   42.3691   49.2786 C   0  0  0  0  0  0  0  0  0  0  0  0
    6.4176   41.5006   48.6411 C   0  0  0  0  0  0  0  0  0  0  0  0
    6.0436   40.4891   48.0546 O   0  0  0  0  0  0  0  0  0  0  0  0
    7.7458   41.8551   48.7171 N   0  0  0  0  0  0  0  0  0  0  0  0
    8.0403   42.9021   49.4061 C   0  0  0  0  0  0  0  0  0  0  0  0
    7.1883   43.7066   50.0892 N   0  0  0  0  0  0  0  0  0  0  0  0
    5.8075   43.5110   49.9879 C   0  0  0  0  0  0  0  0  0  0  0  0
    6.3601   47.7659   53.6121 C   0  0  2  0  0  0  0  0  0  0  0  0
    7.6896   47.0859   53.4202 C   0  0  0  0  0  0  0  0  0  0  0  0
    8.0907   46.6506   52.1431 C   0  0  0  0  0  0  0  0  0  0  0  0
    9.3185   46.0176   51.9379 C   0  0  0  0  0  0  0  0  0  0  0  0
   10.1891   45.8259   53.0059 C   0  0  0  0  0  0  0  0  0  0  0  0
    9.8343   46.2811   54.2724 C   0  0  0  0  0  0  0  0  0  0  0  0
    8.6034   46.9121   54.4715 C   0  0  0  0  0  0  0  0  0  0  0  0
    4.4297   45.9046   55.8866 H   0  0  0  0  0  0  0  0  0  0  0  0
    5.9742   45.4172   55.1096 H   0  0  0  0  0  0  0  0  0  0  0  0
    5.9867   46.5669   56.4898 H   0  0  0  0  0  0  0  0  0  0  0  0
    4.8411   47.9211   55.4796 H   0  0  0  0  0  0  0  0  0  0  0  0
    4.3332   47.5139   52.3850 H   0  0  0  0  0  0  0  0  0  0  0  0
    5.6569   46.1732   50.9343 H   0  0  0  0  0  0  0  0  0  0  0  0
    2.7168   44.5890   50.9821 H   0  0  0  0  0  0  0  0  0  0  0  0
    2.0076   42.5847   49.6996 H   0  0  0  0  0  0  0  0  0  0  0  0
    3.7210   41.1440   48.5996 H   0  0  0  0  0  0  0  0  0  0  0  0
    9.1051   43.1755   49.4453 H   0  0  0  0  0  0  0  0  0  0  0  0
    7.5115   44.6042   50.4529 H   0  0  0  0  0  0  0  0  0  0  0  0
    6.9329   48.6789   53.3924 H   0  0  0  0  0  0  0  0  0  0  0  0
    7.4207   46.8129   51.2859 H   0  0  0  0  0  0  0  0  0  0  0  0
    9.5971   45.6706   50.9319 H   0  0  0  0  0  0  0  0  0  0  0  0
   11.1522   45.3177   52.8503 H   0  0  0  0  0  0  0  0  0  0  0  0
   10.5241   46.1439   55.1182 H   0  0  0  0  0  0  0  0  0  0  0  0
    8.3446   47.2810   55.4750 H   0  0  0  0  0  0  0  0  0  0  0  0
  1  2  1  0
  2  3  1  0
  3  4  1  0
  4  5  2  0
  4  6  1  0
  6  7  1  0
  7  8  2  0
  8  9  1  0
  9 10  2  0
 10 11  1  0
 11 12  1  0
 12 13  2  0
 12 14  1  0
 14 15  2  0
 15 16  1  0
 16 17  1  0
  3 18  1  0
 18 19  1  0
 19 20  2  0
 20 21  1  0
 21 22  2  0
 22 23  1  0
 23 24  2  0
 18  2  1  0
 24 19  1  0
 17  7  1  0
 17 11  2  0
  1 25  1  0
  1 26  1  0
  1 27  1  0
  2 28  1  1
  3 29  1  6
  6 30  1  0
  8 31  1  0
  9 32  1  0
 10 33  1  0
 15 34  1  0
 16 35  1  0
 18 36  1  6
 20 37  1  0
 21 38  1  0
 22 39  1  0
 23 40  1  0
 24 41  1  0
M  END
>  <meeko>  (1) 
{"is_sidechain": false}

>  <CID>  (1) 
Z4521998795

>  <pose_index>  (1) 
2

>  <docking_score>  (1) 
-9.538

>  <rmsd_to_best_selected>  (1) 
0.0

>  <MWT>  (1) 
319.36399999999975

>  <TPSA>  (1) 
74.85

>  <logP>  (1) 
2.9113000000000007

>  <HBD>  (1) 
2

>  <HBA>  (1) 
3

>  <SMILES>  (1) 
[H]c1c([H])c([H])c(C2([H])C([H])(C(=O)N([H])c3c([H])c([H])c([H])c4c(=O)nc([H])n([H])c34)C2([H])C([H])([H])[H])c([H])c1[H]

$$$$
Z4521998795_pose3
     RDKit          3D

 41 44  0  0  0  0  0  0  0  0999 V2000
    5.1678   45.6367   54.6257 C   0  0  0  0  0  0  0  0  0  0  0  0
    5.2604   47.0891   54.3007 C   0  0  2  0  0  0  0  0  0  0  0  0
    5.2538   47.5997   52.8735 C   0  0  2  0  0  0  0  0  0  0  0  0
    4.9582   46.6640   51.7419 C   0  0  0  0  0  0  0  0  0  0  0  0
    4.7191   47.1733   50.6539 O   0  0  0  0  0  0  0  0  0  0  0  0
    4.9606   45.3177   52.0079 N   0  0  0  0  0  0  0  0  0  0  0  0
    4.7588   44.2000   51.1589 C   0  0  0  0  0  0  0  0  0  0  0  0
    3.4234   43.7424   51.1209 C   0  0  0  0  0  0  0  0  0  0  0  0
    3.0411   42.6489   50.3431 C   0  0  0  0  0  0  0  0  0  0  0  0
    3.9932   41.9782   49.5891 C   0  0  0  0  0  0  0  0  0  0  0  0
    5.3230   42.4087   49.6188 C   0  0  0  0  0  0  0  0  0  0  0  0
    6.3595   41.6806   48.8266 C   0  0  0  0  0  0  0  0  0  0  0  0
    6.0107   40.6934   48.1864 O   0  0  0  0  0  0  0  0  0  0  0  0
    7.6614   42.1329   48.8263 N   0  0  0  0  0  0  0  0  0  0  0  0
    7.9372   43.1402   49.5783 C   0  0  0  0  0  0  0  0  0  0  0  0
    7.0912   43.8159   50.3953 N   0  0  0  0  0  0  0  0  0  0  0  0
    5.7251   43.5204   50.3894 C   0  0  0  0  0  0  0  0  0  0  0  0
    6.4894   47.7735   53.7378 C   0  0  2  0  0  0  0  0  0  0  0  0
    7.8140   47.1122   53.4667 C   0  0  0  0  0  0  0  0  0  0  0  0
    8.2427   46.8861   52.1454 C   0  0  0  0  0  0  0  0  0  0  0  0
    9.4665   46.2739   51.8663 C   0  0  0  0  0  0  0  0  0  0  0  0
   10.3055   45.8941   52.9087 C   0  0  0  0  0  0  0  0  0  0  0  0
    9.9255   46.1383   54.2235 C   0  0  0  0  0  0  0  0  0  0  0  0
    8.6973   46.7501   54.4959 C   0  0  0  0  0  0  0  0  0  0  0  0
    4.8438   45.5145   55.6697 H   0  0  0  0  0  0  0  0  0  0  0  0
    4.4380   45.1571   53.9567 H   0  0  0  0  0  0  0  0  0  0  0  0
    6.1533   45.1671   54.4902 H   0  0  0  0  0  0  0  0  0  0  0  0
    4.6478   47.2417   55.2014 H   0  0  0  0  0  0  0  0  0  0  0  0
    4.7259   48.3200   52.2312 H   0  0  0  0  0  0  0  0  0  0  0  0
    5.0712   45.0778   52.9823 H   0  0  0  0  0  0  0  0  0  0  0  0
    2.6629   44.2629   51.7215 H   0  0  0  0  0  0  0  0  0  0  0  0
    1.9913   42.3207   50.3278 H   0  0  0  0  0  0  0  0  0  0  0  0
    3.7040   41.1143   48.9727 H   0  0  0  0  0  0  0  0  0  0  0  0
    8.9786   43.4938   49.5559 H   0  0  0  0  0  0  0  0  0  0  0  0
    7.3794   44.7041   50.8091 H   0  0  0  0  0  0  0  0  0  0  0  0
    7.1163   48.6195   54.0559 H   0  0  0  0  0  0  0  0  0  0  0  0
    7.5975   47.1995   51.3114 H   0  0  0  0  0  0  0  0  0  0  0  0
    9.7665   46.0924   50.8237 H   0  0  0  0  0  0  0  0  0  0  0  0
   11.2657   45.4026   52.6935 H   0  0  0  0  0  0  0  0  0  0  0  0
   10.5913   45.8501   55.0504 H   0  0  0  0  0  0  0  0  0  0  0  0
    8.4174   46.9521   55.5404 H   0  0  0  0  0  0  0  0  0  0  0  0
  1  2  1  0
  2  3  1  0
  3  4  1  0
  4  5  2  0
  4  6  1  0
  6  7  1  0
  7  8  2  0
  8  9  1  0
  9 10  2  0
 10 11  1  0
 11 12  1  0
 12 13  2  0
 12 14  1  0
 14 15  2  0
 15 16  1  0
 16 17  1  0
  3 18  1  0
 18 19  1  0
 19 20  2  0
 20 21  1  0
 21 22  2  0
 22 23  1  0
 23 24  2  0
 18  2  1  0
 24 19  1  0
 17  7  1  0
 17 11  2  0
  1 25  1  0
  1 26  1  0
  1 27  1  0
  2 28  1  1
  3 29  1  1
  6 30  1  0
  8 31  1  0
  9 32  1  0
 10 33  1  0
 15 34  1  0
 16 35  1  0
 18 36  1  1
 20 37  1  0
 21 38  1  0
 22 39  1  0
 23 40  1  0
 24 41  1  0
M  END
>  <meeko>  (2) 
{"is_sidechain": false}

>  <CID>  (2) 
Z4521998795

>  <pose_index>  (2) 
3

>  <docking_score>  (2) 
-9.119

>  <rmsd_to_best_selected>  (2) 
0.9419227202035425

>  <MWT>  (2) 
319.36399999999975

>  <TPSA>  (2) 
74.85

>  <logP>  (2) 
2.9113000000000007

>  <HBD>  (2) 
2

>  <HBA>  (2) 
3

>  <SMILES>  (2) 
[H]c1c([H])c([H])c(C2([H])C([H])(C(=O)N([H])c3c([H])c([H])c([H])c4c(=O)nc([H])n([H])c34)C2([H])C([H])([H])[H])c([H])c1[H]

$$$$
Z4521998795_pose5
     RDKit          3D

 41 44  0  0  0  0  0  0  0  0999 V2000
    5.4906   45.2389   54.6240 C   0  0  0  0  0  0  0  0  0  0  0  0
    5.3279   46.7025   54.3883 C   0  0  2  0  0  0  0  0  0  0  0  0
    5.2650   47.2932   52.9931 C   0  0  2  0  0  0  0  0  0  0  0  0
    5.1719   46.3939   51.7999 C   0  0  0  0  0  0  0  0  0  0  0  0
    5.4904   46.8765   50.7201 O   0  0  0  0  0  0  0  0  0  0  0  0
    4.7259   45.1118   51.9986 N   0  0  0  0  0  0  0  0  0  0  0  0
    4.5649   44.0305   51.0942 C   0  0  0  0  0  0  0  0  0  0  0  0
    3.3117   43.3870   51.1881 C   0  0  0  0  0  0  0  0  0  0  0  0
    2.9802   42.2995   50.3798 C   0  0  0  0  0  0  0  0  0  0  0  0
    3.9027   41.8207   49.4607 C   0  0  0  0  0  0  0  0  0  0  0  0
    5.1535   42.4393   49.3573 C   0  0  0  0  0  0  0  0  0  0  0  0
    6.1629   41.9191   48.3864 C   0  0  0  0  0  0  0  0  0  0  0  0
    5.8681   40.9325   47.7170 O   0  0  0  0  0  0  0  0  0  0  0  0
    7.3778   42.5553   48.2580 N   0  0  0  0  0  0  0  0  0  0  0  0
    7.6131   43.5447   49.0472 C   0  0  0  0  0  0  0  0  0  0  0  0
    6.8016   44.0391   50.0160 N   0  0  0  0  0  0  0  0  0  0  0  0
    5.5013   43.5476   50.1577 C   0  0  0  0  0  0  0  0  0  0  0  0
    6.4272   47.6295   53.9110 C   0  0  2  0  0  0  0  0  0  0  0  0
    7.8558   47.2337   53.6495 C   0  0  0  0  0  0  0  0  0  0  0  0
    8.9058   47.8357   54.3673 C   0  0  0  0  0  0  0  0  0  0  0  0
   10.2399   47.4867   54.1448 C   0  0  0  0  0  0  0  0  0  0  0  0
   10.5543   46.5043   53.2105 C   0  0  0  0  0  0  0  0  0  0  0  0
    9.5338   45.8649   52.5140 C   0  0  0  0  0  0  0  0  0  0  0  0
    8.2012   46.2212   52.7402 C   0  0  0  0  0  0  0  0  0  0  0  0
    4.5635   44.8314   55.0534 H   0  0  0  0  0  0  0  0  0  0  0  0
    5.7049   44.7354   53.6697 H   0  0  0  0  0  0  0  0  0  0  0  0
    6.3233   45.0704   55.3226 H   0  0  0  0  0  0  0  0  0  0  0  0
    4.6757   46.6860   55.2739 H   0  0  0  0  0  0  0  0  0  0  0  0
    4.6321   47.9467   52.3747 H   0  0  0  0  0  0  0  0  0  0  0  0
    4.4045   44.9150   52.9347 H   0  0  0  0  0  0  0  0  0  0  0  0
    2.5761   43.7534   51.9193 H   0  0  0  0  0  0  0  0  0  0  0  0
    1.9924   41.8241   50.4705 H   0  0  0  0  0  0  0  0  0  0  0  0
    3.6531   40.9626   48.8193 H   0  0  0  0  0  0  0  0  0  0  0  0
    8.5836   44.0471   48.9219 H   0  0  0  0  0  0  0  0  0  0  0  0
    7.0205   44.9318   50.4596 H   0  0  0  0  0  0  0  0  0  0  0  0
    6.8830   48.5517   54.3005 H   0  0  0  0  0  0  0  0  0  0  0  0
    8.6701   48.6001   55.1224 H   0  0  0  0  0  0  0  0  0  0  0  0
   11.0412   47.9879   54.7075 H   0  0  0  0  0  0  0  0  0  0  0  0
   11.6043   46.2347   53.0237 H   0  0  0  0  0  0  0  0  0  0  0  0
    9.7758   45.0781   51.7843 H   0  0  0  0  0  0  0  0  0  0  0  0
    7.4045   45.6959   52.1930 H   0  0  0  0  0  0  0  0  0  0  0  0
  1  2  1  0
  2  3  1  0
  3  4  1  0
  4  5  2  0
  4  6  1  0
  6  7  1  0
  7  8  2  0
  8  9  1  0
  9 10  2  0
 10 11  1  0
 11 12  1  0
 12 13  2  0
 12 14  1  0
 14 15  2  0
 15 16  1  0
 16 17  1  0
  3 18  1  0
 18 19  1  0
 19 20  2  0
 20 21  1  0
 21 22  2  0
 22 23  1  0
 23 24  2  0
 18  2  1  0
 24 19  1  0
 17  7  1  0
 17 11  2  0
  1 25  1  0
  1 26  1  0
  1 27  1  0
  2 28  1  1
  3 29  1  1
  6 30  1  0
  8 31  1  0
  9 32  1  0
 10 33  1  0
 15 34  1  0
 16 35  1  0
 18 36  1  1
 20 37  1  0
 21 38  1  0
 22 39  1  0
 23 40  1  0
 24 41  1  0
M  END
>  <meeko>  (3) 
{"is_sidechain": false}

>  <CID>  (3) 
Z4521998795

>  <pose_index>  (3) 
5

>  <docking_score>  (3) 
-9.021

>  <rmsd_to_best_selected>  (3) 
1.1417089637841025

>  <MWT>  (3) 
319.36399999999975

>  <TPSA>  (3) 
74.85

>  <logP>  (3) 
2.9113000000000007

>  <HBD>  (3) 
2

>  <HBA>  (3) 
3

>  <SMILES>  (3) 
[H]c1c([H])c([H])c(C2([H])C([H])(C(=O)N([H])c3c([H])c([H])c([H])c4c(=O)nc([H])n([H])c34)C2([H])C([H])([H])[H])c([H])c1[H]

$$$$
Z4521998795_pose7
     RDKit          3D

 41 44  0  0  0  0  0  0  0  0999 V2000
    5.2805   45.3897   54.4643 C   0  0  0  0  0  0  0  0  0  0  0  0
    5.2751   46.8560   54.1898 C   0  0  2  0  0  0  0  0  0  0  0  0
    5.4381   47.4148   52.7899 C   0  0  2  0  0  0  0  0  0  0  0  0
    5.4183   46.4981   51.6073 C   0  0  0  0  0  0  0  0  0  0  0  0
    6.0452   46.8596   50.6183 O   0  0  0  0  0  0  0  0  0  0  0  0
    4.6929   45.3379   51.7090 N   0  0  0  0  0  0  0  0  0  0  0  0
    4.5123   44.2673   50.7951 C   0  0  0  0  0  0  0  0  0  0  0  0
    3.1595   43.9740   50.5181 C   0  0  0  0  0  0  0  0  0  0  0  0
    2.7922   42.9490   49.6460 C   0  0  0  0  0  0  0  0  0  0  0  0
    3.7742   42.1841   49.0342 C   0  0  0  0  0  0  0  0  0  0  0  0
    5.1199   42.4530   49.3016 C   0  0  0  0  0  0  0  0  0  0  0  0
    6.1867   41.6216   48.6639 C   0  0  0  0  0  0  0  0  0  0  0  0
    5.8407   40.6960   47.9361 O   0  0  0  0  0  0  0  0  0  0  0  0
    7.5117   41.9156   48.8969 N   0  0  0  0  0  0  0  0  0  0  0  0
    7.7694   42.8685   49.7229 C   0  0  0  0  0  0  0  0  0  0  0  0
    6.8806   43.6248   50.4148 N   0  0  0  0  0  0  0  0  0  0  0  0
    5.5104   43.4936   50.1704 C   0  0  0  0  0  0  0  0  0  0  0  0
    6.5006   47.6758   53.8422 C   0  0  2  0  0  0  0  0  0  0  0  0
    7.9116   47.1554   53.7703 C   0  0  0  0  0  0  0  0  0  0  0  0
    8.9665   47.8677   54.3719 C   0  0  0  0  0  0  0  0  0  0  0  0
   10.2840   47.4075   54.3195 C   0  0  0  0  0  0  0  0  0  0  0  0
   10.5744   46.2061   53.6823 C   0  0  0  0  0  0  0  0  0  0  0  0
    9.5465   45.4619   53.1119 C   0  0  0  0  0  0  0  0  0  0  0  0
    8.2303   45.9299   53.1662 C   0  0  0  0  0  0  0  0  0  0  0  0
    6.3149   45.0498   54.6205 H   0  0  0  0  0  0  0  0  0  0  0  0
    4.6865   45.1835   55.3669 H   0  0  0  0  0  0  0  0  0  0  0  0
    4.8441   44.8547   53.6080 H   0  0  0  0  0  0  0  0  0  0  0  0
    4.5187   46.9161   54.9861 H   0  0  0  0  0  0  0  0  0  0  0  0
    4.9455   48.1030   52.0872 H   0  0  0  0  0  0  0  0  0  0  0  0
    4.1510   45.2488   52.5557 H   0  0  0  0  0  0  0  0  0  0  0  0
    2.3729   44.5704   51.0035 H   0  0  0  0  0  0  0  0  0  0  0  0
    1.7295   42.7484   49.4447 H   0  0  0  0  0  0  0  0  0  0  0  0
    3.4968   41.3732   48.3447 H   0  0  0  0  0  0  0  0  0  0  0  0
    8.8331   43.0959   49.8868 H   0  0  0  0  0  0  0  0  0  0  0  0
    7.1937   44.4638   50.9052 H   0  0  0  0  0  0  0  0  0  0  0  0
    6.9816   48.5666   54.2725 H   0  0  0  0  0  0  0  0  0  0  0  0
    8.7476   48.8097   54.8959 H   0  0  0  0  0  0  0  0  0  0  0  0
   11.0912   47.9948   54.7817 H   0  0  0  0  0  0  0  0  0  0  0  0
   11.6124   45.8457   53.6296 H   0  0  0  0  0  0  0  0  0  0  0  0
    9.7697   44.5047   52.6178 H   0  0  0  0  0  0  0  0  0  0  0  0
    7.4258   45.3232   52.7251 H   0  0  0  0  0  0  0  0  0  0  0  0
  1  2  1  0
  2  3  1  0
  3  4  1  0
  4  5  2  0
  4  6  1  0
  6  7  1  0
  7  8  2  0
  8  9  1  0
  9 10  2  0
 10 11  1  0
 11 12  1  0
 12 13  2  0
 12 14  1  0
 14 15  2  0
 15 16  1  0
 16 17  1  0
  3 18  1  0
 18 19  1  0
 19 20  2  0
 20 21  1  0
 21 22  2  0
 22 23  1  0
 23 24  2  0
 18  2  1  0
 24 19  1  0
 17  7  1  0
 17 11  2  0
  1 25  1  0
  1 26  1  0
  1 27  1  0
  2 28  1  1
  3 29  1  6
  6 30  1  0
  8 31  1  0
  9 32  1  0
 10 33  1  0
 15 34  1  0
 16 35  1  0
 18 36  1  1
 20 37  1  0
 21 38  1  0
 22 39  1  0
 23 40  1  0
 24 41  1  0
M  END
>  <meeko>  (4) 
{"is_sidechain": false}

>  <CID>  (4) 
Z4521998795

>  <pose_index>  (4) 
7

>  <docking_score>  (4) 
-8.857

>  <rmsd_to_best_selected>  (4) 
1.2506013125632514

>  <MWT>  (4) 
319.36399999999975

>  <TPSA>  (4) 
74.85

>  <logP>  (4) 
2.9113000000000007

>  <HBD>  (4) 
2

>  <HBA>  (4) 
3

>  <SMILES>  (4) 
[H]c1c([H])c([H])c(C2([H])C([H])(C(=O)N([H])c3c([H])c([H])c([H])c4c(=O)nc([H])n([H])c34)C2([H])C([H])([H])[H])c([H])c1[H]

$$$$
Z4521998795_pose8
     RDKit          3D

 41 44  0  0  0  0  0  0  0  0999 V2000
    4.8090   46.4331   54.9012 C   0  0  0  0  0  0  0  0  0  0  0  0
    5.2056   47.6848   54.1938 C   0  0  2  0  0  0  0  0  0  0  0  0
    5.2320   47.7822   52.6811 C   0  0  2  0  0  0  0  0  0  0  0  0
    4.6711   46.6740   51.8453 C   0  0  0  0  0  0  0  0  0  0  0  0
    3.5878   46.8803   51.3116 O   0  0  0  0  0  0  0  0  0  0  0  0
    5.3972   45.5126   51.7522 N   0  0  0  0  0  0  0  0  0  0  0  0
    5.1577   44.3198   51.0233 C   0  0  0  0  0  0  0  0  0  0  0  0
    3.8513   43.8056   51.1802 C   0  0  0  0  0  0  0  0  0  0  0  0
    3.4399   42.6361   50.5413 C   0  0  0  0  0  0  0  0  0  0  0  0
    4.3317   41.9436   49.7348 C   0  0  0  0  0  0  0  0  0  0  0  0
    5.6319   42.4322   49.5728 C   0  0  0  0  0  0  0  0  0  0  0  0
    6.6068   41.6841   48.7222 C   0  0  0  0  0  0  0  0  0  0  0  0
    6.2385   40.6331   48.2066 O   0  0  0  0  0  0  0  0  0  0  0  0
    7.8743   42.1894   48.5309 N   0  0  0  0  0  0  0  0  0  0  0  0
    8.1829   43.2670   49.1636 C   0  0  0  0  0  0  0  0  0  0  0  0
    7.4027   43.9725   50.0201 N   0  0  0  0  0  0  0  0  0  0  0  0
    6.0626   43.6203   50.1999 C   0  0  0  0  0  0  0  0  0  0  0  0
    6.5221   47.8918   53.4728 C   0  0  2  0  0  0  0  0  0  0  0  0
    7.6481   46.8950   53.4014 C   0  0  0  0  0  0  0  0  0  0  0  0
    8.4747   46.8321   52.2631 C   0  0  0  0  0  0  0  0  0  0  0  0
    9.5258   45.9169   52.1717 C   0  0  0  0  0  0  0  0  0  0  0  0
    9.7899   45.0546   53.2304 C   0  0  0  0  0  0  0  0  0  0  0  0
    9.0137   45.1201   54.3826 C   0  0  0  0  0  0  0  0  0  0  0  0
    7.9616   46.0374   54.4671 C   0  0  0  0  0  0  0  0  0  0  0  0
    5.3154   46.3870   55.8766 H   0  0  0  0  0  0  0  0  0  0  0  0
    3.7196   46.4271   55.0530 H   0  0  0  0  0  0  0  0  0  0  0  0
    5.0996   45.5619   54.2957 H   0  0  0  0  0  0  0  0  0  0  0  0
    4.6958   48.2094   55.0153 H   0  0  0  0  0  0  0  0  0  0  0  0
    4.8421   48.4056   51.8629 H   0  0  0  0  0  0  0  0  0  0  0  0
    6.2146   45.4752   52.3427 H   0  0  0  0  0  0  0  0  0  0  0  0
    3.1389   44.3425   51.8238 H   0  0  0  0  0  0  0  0  0  0  0  0
    2.4134   42.2645   50.6762 H   0  0  0  0  0  0  0  0  0  0  0  0
    4.0188   41.0190   49.2277 H   0  0  0  0  0  0  0  0  0  0  0  0
    9.1951   43.6610   48.9898 H   0  0  0  0  0  0  0  0  0  0  0  0
    7.6906   44.9040   50.3257 H   0  0  0  0  0  0  0  0  0  0  0  0
    7.3389   48.6244   53.5513 H   0  0  0  0  0  0  0  0  0  0  0  0
    8.2882   47.5205   51.4257 H   0  0  0  0  0  0  0  0  0  0  0  0
   10.1443   45.8781   51.2628 H   0  0  0  0  0  0  0  0  0  0  0  0
   10.6090   44.3241   53.1568 H   0  0  0  0  0  0  0  0  0  0  0  0
    9.2276   44.4498   55.2281 H   0  0  0  0  0  0  0  0  0  0  0  0
    7.3659   46.0879   55.3905 H   0  0  0  0  0  0  0  0  0  0  0  0
  1  2  1  0
  2  3  1  0
  3  4  1  0
  4  5  2  0
  4  6  1  0
  6  7  1  0
  7  8  2  0
  8  9  1  0
  9 10  2  0
 10 11  1  0
 11 12  1  0
 12 13  2  0
 12 14  1  0
 14 15  2  0
 15 16  1  0
 16 17  1  0
  3 18  1  0
 18 19  1  0
 19 20  2  0
 20 21  1  0
 21 22  2  0
 22 23  1  0
 23 24  2  0
 18  2  1  0
 24 19  1  0
 17  7  1  0
 17 11  2  0
  1 25  1  0
  1 26  1  0
  1 27  1  0
  2 28  1  1
  3 29  1  1
  6 30  1  0
  8 31  1  0
  9 32  1  0
 10 33  1  0
 15 34  1  0
 16 35  1  0
 18 36  1  1
 20 37  1  0
 21 38  1  0
 22 39  1  0
 23 40  1  0
 24 41  1  0
M  END
>  <meeko>  (5) 
{"is_sidechain": false}

>  <CID>  (5) 
Z4521998795

>  <pose_index>  (5) 
8

>  <docking_score>  (5) 
-8.556

>  <rmsd_to_best_selected>  (5) 
0.93004244819312

>  <MWT>  (5) 
319.36399999999975

>  <TPSA>  (5) 
74.85

>  <logP>  (5) 
2.9113000000000007

>  <HBD>  (5) 
2

>  <HBA>  (5) 
3

>  <SMILES>  (5) 
[H]c1c([H])c([H])c(C2([H])C([H])(C(=O)N([H])c3c([H])c([H])c([H])c4c(=O)nc([H])n([H])c34)C2([H])C([H])([H])[H])c([H])c1[H]

$$$$
Z4521998795_pose10
     RDKit          3D

 41 44  0  0  0  0  0  0  0  0999 V2000
    4.9738   46.0980   54.2638 C   0  0  0  0  0  0  0  0  0  0  0  0
    5.2770   47.4501   53.7107 C   0  0  2  0  0  0  0  0  0  0  0  0
    5.6701   47.6595   52.2618 C   0  0  2  0  0  0  0  0  0  0  0  0
    5.5783   46.5275   51.2865 C   0  0  0  0  0  0  0  0  0  0  0  0
    6.1220   46.6895   50.2010 O   0  0  0  0  0  0  0  0  0  0  0  0
    4.8845   45.4065   51.6696 N   0  0  0  0  0  0  0  0  0  0  0  0
    4.6556   44.1772   51.0004 C   0  0  0  0  0  0  0  0  0  0  0  0
    3.3427   43.6802   51.1490 C   0  0  0  0  0  0  0  0  0  0  0  0
    2.9393   42.4793   50.5639 C   0  0  0  0  0  0  0  0  0  0  0  0
    3.8466   41.7398   49.8199 C   0  0  0  0  0  0  0  0  0  0  0  0
    5.1552   42.2111   49.6667 C   0  0  0  0  0  0  0  0  0  0  0  0
    6.1470   41.4121   48.8853 C   0  0  0  0  0  0  0  0  0  0  0  0
    5.7848   40.3362   48.4173 O   0  0  0  0  0  0  0  0  0  0  0  0
    7.4228   41.8983   48.7014 N   0  0  0  0  0  0  0  0  0  0  0  0
    7.7224   43.0072   49.2828 C   0  0  0  0  0  0  0  0  0  0  0  0
    6.9243   43.7633   50.0779 N   0  0  0  0  0  0  0  0  0  0  0  0
    5.5769   43.4292   50.2409 C   0  0  0  0  0  0  0  0  0  0  0  0
    6.6637   47.9548   53.3698 C   0  0  2  0  0  0  0  0  0  0  0  0
    7.9485   47.1982   53.5796 C   0  0  0  0  0  0  0  0  0  0  0  0
    8.1322   45.9286   52.9996 C   0  0  0  0  0  0  0  0  0  0  0  0
    9.3141   45.2066   53.1801 C   0  0  0  0  0  0  0  0  0  0  0  0
   10.3530   45.7491   53.9288 C   0  0  0  0  0  0  0  0  0  0  0  0
   10.2137   47.0172   54.4816 C   0  0  0  0  0  0  0  0  0  0  0  0
    9.0277   47.7341   54.3000 C   0  0  0  0  0  0  0  0  0  0  0  0
    3.8839   45.9632   54.3258 H   0  0  0  0  0  0  0  0  0  0  0  0
    5.4017   45.3279   53.6051 H   0  0  0  0  0  0  0  0  0  0  0  0
    5.4123   46.0060   55.2684 H   0  0  0  0  0  0  0  0  0  0  0  0
    4.4781   47.8077   54.3769 H   0  0  0  0  0  0  0  0  0  0  0  0
    5.3857   48.2548   51.3816 H   0  0  0  0  0  0  0  0  0  0  0  0
    4.4093   45.4845   52.5570 H   0  0  0  0  0  0  0  0  0  0  0  0
    2.6172   44.2558   51.7427 H   0  0  0  0  0  0  0  0  0  0  0  0
    1.9072   42.1210   50.6921 H   0  0  0  0  0  0  0  0  0  0  0  0
    3.5403   40.7915   49.3544 H   0  0  0  0  0  0  0  0  0  0  0  0
    8.7420   43.3847   49.1159 H   0  0  0  0  0  0  0  0  0  0  0  0
    7.2107   44.7079   50.3418 H   0  0  0  0  0  0  0  0  0  0  0  0
    7.2671   48.8215   53.6775 H   0  0  0  0  0  0  0  0  0  0  0  0
    7.3259   45.4951   52.3897 H   0  0  0  0  0  0  0  0  0  0  0  0
    9.4233   44.2088   52.7301 H   0  0  0  0  0  0  0  0  0  0  0  0
   11.2802   45.1778   54.0829 H   0  0  0  0  0  0  0  0  0  0  0  0
   11.0379   47.4568   55.0626 H   0  0  0  0  0  0  0  0  0  0  0  0
    8.9378   48.7418   54.7317 H   0  0  0  0  0  0  0  0  0  0  0  0
  1  2  1  0
  2  3  1  0
  3  4  1  0
  4  5  2  0
  4  6  1  0
  6  7  1  0
  7  8  2  0
  8  9  1  0
  9 10  2  0
 10 11  1  0
 11 12  1  0
 12 13  2  0
 12 14  1  0
 14 15  2  0
 15 16  1  0
 16 17  1  0
  3 18  1  0
 18 19  1  0
 19 20  2  0
 20 21  1  0
 21 22  2  0
 22 23  1  0
 23 24  2  0
 18  2  1  0
 24 19  1  0
 17  7  1  0
 17 11  2  0
  1 25  1  0
  1 26  1  0
  1 27  1  0
  2 28  1  1
  3 29  1  6
  6 30  1  0
  8 31  1  0
  9 32  1  0
 10 33  1  0
 15 34  1  0
 16 35  1  0
 18 36  1  1
 20 37  1  0
 21 38  1  0
 22 39  1  0
 23 40  1  0
 24 41  1  0
M  END
>  <meeko>  (6) 
{"is_sidechain": false}

>  <CID>  (6) 
Z4521998795

>  <pose_index>  (6) 
10

>  <docking_score>  (6) 
-8.375

>  <rmsd_to_best_selected>  (6) 
1.2162125060909226

>  <MWT>  (6) 
319.36399999999975

>  <TPSA>  (6) 
74.85

>  <logP>  (6) 
2.9113000000000007

>  <HBD>  (6) 
2

>  <HBA>  (6) 
3

>  <SMILES>  (6) 
[H]c1c([H])c([H])c(C2([H])C([H])(C(=O)N([H])c3c([H])c([H])c([H])c4c(=O)nc([H])n([H])c34)C2([H])C([H])([H])[H])c([H])c1[H]

$$$$
