Z56890527_pose4
     RDKit          3D

 40 43  0  0  0  0  0  0  0  0999 V2000
    7.3916   45.2665   49.8124 C   0  0  0  0  0  0  0  0  0  0  0  0
    6.8541   45.3722   51.2118 C   0  0  0  0  0  0  0  0  0  0  0  0
    5.6567   44.7800   51.4197 N   0  0  0  0  0  0  0  0  0  0  0  0
    5.1290   44.8448   52.6533 C   0  0  0  0  0  0  0  0  0  0  0  0
    3.9070   44.2547   52.9216 N   0  0  0  0  0  0  0  0  0  0  0  0
    2.9457   44.6236   53.8067 C   0  0  0  0  0  0  0  0  0  0  0  0
    1.8587   43.9118   53.8899 N   0  0  0  0  0  0  0  0  0  0  0  0
    0.8926   44.2948   54.7907 C   0  0  0  0  0  0  0  0  0  0  0  0
    0.9918   45.3622   55.6010 C   0  0  0  0  0  0  0  0  0  0  0  0
    2.2224   46.1732   55.5015 C   0  0  0  0  0  0  0  0  0  0  0  0
    2.4063   47.1728   56.1870 O   0  0  0  0  0  0  0  0  0  0  0  0
    3.1310   45.7270   54.5916 N   0  0  0  0  0  0  0  0  0  0  0  0
   -0.0465   45.7759   56.5995 C   0  0  0  0  0  0  0  0  0  0  0  0
   -1.1038   44.6970   56.8386 C   0  0  0  0  0  0  0  0  0  0  0  0
   -1.5340   44.0523   55.5260 C   0  0  0  0  0  0  0  0  0  0  0  0
   -0.3401   43.4196   54.8077 C   0  0  0  0  0  0  0  0  0  0  0  0
    5.7251   45.4620   53.6808 N   0  0  0  0  0  0  0  0  0  0  0  0
    6.9106   46.0470   53.4685 C   0  0  0  0  0  0  0  0  0  0  0  0
    7.5367   46.6905   54.5295 C   0  0  0  0  0  0  0  0  0  0  0  0
    8.7746   47.3231   54.3861 C   0  0  0  0  0  0  0  0  0  0  0  0
    9.4117   47.3189   53.1529 C   0  0  0  0  0  0  0  0  0  0  0  0
    8.8061   46.6806   52.0729 C   0  0  0  0  0  0  0  0  0  0  0  0
    7.5506   46.0405   52.2234 C   0  0  0  0  0  0  0  0  0  0  0  0
    7.3749   44.2144   49.4917 H   0  0  0  0  0  0  0  0  0  0  0  0
    6.7677   45.8666   49.1337 H   0  0  0  0  0  0  0  0  0  0  0  0
    8.4255   45.6411   49.7874 H   0  0  0  0  0  0  0  0  0  0  0  0
    3.7335   43.4367   52.3614 H   0  0  0  0  0  0  0  0  0  0  0  0
    3.9909   46.2516   54.4878 H   0  0  0  0  0  0  0  0  0  0  0  0
    0.4527   45.9962   57.5546 H   0  0  0  0  0  0  0  0  0  0  0  0
   -0.5615   46.6594   56.1942 H   0  0  0  0  0  0  0  0  0  0  0  0
   -0.6850   43.9233   57.4989 H   0  0  0  0  0  0  0  0  0  0  0  0
   -1.9837   45.1658   57.3033 H   0  0  0  0  0  0  0  0  0  0  0  0
   -2.2814   43.2730   55.7361 H   0  0  0  0  0  0  0  0  0  0  0  0
   -1.9607   44.8310   54.8768 H   0  0  0  0  0  0  0  0  0  0  0  0
   -0.0894   42.4764   55.3152 H   0  0  0  0  0  0  0  0  0  0  0  0
   -0.6396   43.2660   53.7604 H   0  0  0  0  0  0  0  0  0  0  0  0
    7.0428   46.7021   55.5123 H   0  0  0  0  0  0  0  0  0  0  0  0
    9.2424   47.8225   55.2474 H   0  0  0  0  0  0  0  0  0  0  0  0
   10.3857   47.8150   53.0295 H   0  0  0  0  0  0  0  0  0  0  0  0
    9.3073   46.6733   51.0937 H   0  0  0  0  0  0  0  0  0  0  0  0
  1  2  1  0
  2  3  2  0
  3  4  1  0
  4  5  1  0
  5  6  1  0
  6  7  2  0
  7  8  1  0
  8  9  2  0
  9 10  1  0
 10 11  2  0
 10 12  1  0
  9 13  1  0
 13 14  1  0
 14 15  1  0
 15 16  1  0
  4 17  2  0
 17 18  1  0
 18 19  2  0
 19 20  1  0
 20 21  2  0
 21 22  1  0
 22 23  2  0
 23  2  1  0
 12  6  1  0
 23 18  1  0
 16  8  1  0
  1 24  1  0
  1 25  1  0
  1 26  1  0
  5 27  1  0
 12 28  1  0
 13 29  1  0
 13 30  1  0
 14 31  1  0
 14 32  1  0
 15 33  1  0
 15 34  1  0
 16 35  1  0
 16 36  1  0
 19 37  1  0
 20 38  1  0
 21 39  1  0
 22 40  1  0
M  END
>  <meeko>  (1) 
{"is_sidechain": false}

>  <CID>  (1) 
Z56890527

>  <pose_index>  (1) 
4

>  <docking_score>  (1) 
-9.568

>  <rmsd_to_best_selected>  (1) 
1.2379737214731066

>  <MWT>  (1) 
307.3569999999997

>  <TPSA>  (1) 
83.56

>  <logP>  (1) 
2.6439200000000005

>  <HBD>  (1) 
2

>  <HBA>  (1) 
5

>  <SMILES>  (1) 
[H]c1c([H])c([H])c2c(C([H])([H])[H])nc(N([H])c3nc4c(c(=O)n3[H])C([H])([H])C([H])([H])C([H])([H])C4([H])[H])nc2c1[H]

$$$$
Z56890527_pose2
     RDKit          3D

 40 43  0  0  0  0  0  0  0  0999 V2000
    6.8856   47.5711   50.1323 C   0  0  0  0  0  0  0  0  0  0  0  0
    6.5425   47.0228   51.4884 C   0  0  0  0  0  0  0  0  0  0  0  0
    5.2498   47.1603   51.8600 N   0  0  0  0  0  0  0  0  0  0  0  0
    4.8884   46.6881   53.0641 C   0  0  0  0  0  0  0  0  0  0  0  0
    3.5787   46.8023   53.4950 N   0  0  0  0  0  0  0  0  0  0  0  0
    2.7776   45.8747   54.0786 C   0  0  0  0  0  0  0  0  0  0  0  0
    1.5629   46.2079   54.4074 N   0  0  0  0  0  0  0  0  0  0  0  0
    0.7613   45.2593   54.9983 C   0  0  0  0  0  0  0  0  0  0  0  0
    1.1456   43.9991   55.2634 C   0  0  0  0  0  0  0  0  0  0  0  0
    2.5267   43.6239   54.8962 C   0  0  0  0  0  0  0  0  0  0  0  0
    2.9800   42.5039   55.1059 O   0  0  0  0  0  0  0  0  0  0  0  0
    3.2537   44.6153   54.3131 N   0  0  0  0  0  0  0  0  0  0  0  0
    0.2731   42.9530   55.8891 C   0  0  0  0  0  0  0  0  0  0  0  0
   -1.2031   43.3538   55.9220 C   0  0  0  0  0  0  0  0  0  0  0  0
   -1.3640   44.8137   56.3291 C   0  0  0  0  0  0  0  0  0  0  0  0
   -0.6261   45.7390   55.3590 C   0  0  0  0  0  0  0  0  0  0  0  0
    5.7389   46.0911   53.9099 N   0  0  0  0  0  0  0  0  0  0  0  0
    7.0174   45.9583   53.5361 C   0  0  0  0  0  0  0  0  0  0  0  0
    7.9058   45.3408   54.4074 C   0  0  0  0  0  0  0  0  0  0  0  0
    9.2550   45.1653   54.0877 C   0  0  0  0  0  0  0  0  0  0  0  0
    9.7389   45.6170   52.8678 C   0  0  0  0  0  0  0  0  0  0  0  0
    8.8682   46.2387   51.9752 C   0  0  0  0  0  0  0  0  0  0  0  0
    7.5014   46.4152   52.3043 C   0  0  0  0  0  0  0  0  0  0  0  0
    7.3358   46.7768   49.5189 H   0  0  0  0  0  0  0  0  0  0  0  0
    5.9712   47.9383   49.6432 H   0  0  0  0  0  0  0  0  0  0  0  0
    7.6008   48.3996   50.2419 H   0  0  0  0  0  0  0  0  0  0  0  0
    3.1918   47.7182   53.3393 H   0  0  0  0  0  0  0  0  0  0  0  0
    4.2073   44.4035   54.0439 H   0  0  0  0  0  0  0  0  0  0  0  0
    0.3717   42.0220   55.3116 H   0  0  0  0  0  0  0  0  0  0  0  0
    0.6047   42.8248   56.9300 H   0  0  0  0  0  0  0  0  0  0  0  0
   -1.6374   43.2094   54.9218 H   0  0  0  0  0  0  0  0  0  0  0  0
   -1.7205   42.7249   56.6614 H   0  0  0  0  0  0  0  0  0  0  0  0
   -2.4334   45.0714   56.3285 H   0  0  0  0  0  0  0  0  0  0  0  0
   -0.9357   44.9463   57.3335 H   0  0  0  0  0  0  0  0  0  0  0  0
   -1.2179   45.8166   54.4350 H   0  0  0  0  0  0  0  0  0  0  0  0
   -0.5095   46.7085   55.8654 H   0  0  0  0  0  0  0  0  0  0  0  0
    7.5363   44.9791   55.3783 H   0  0  0  0  0  0  0  0  0  0  0  0
    9.9311   44.6707   54.8006 H   0  0  0  0  0  0  0  0  0  0  0  0
   10.7997   45.4854   52.6082 H   0  0  0  0  0  0  0  0  0  0  0  0
    9.2456   46.5960   51.0057 H   0  0  0  0  0  0  0  0  0  0  0  0
  1  2  1  0
  2  3  2  0
  3  4  1  0
  4  5  1  0
  5  6  1  0
  6  7  2  0
  7  8  1  0
  8  9  2  0
  9 10  1  0
 10 11  2  0
 10 12  1  0
  9 13  1  0
 13 14  1  0
 14 15  1  0
 15 16  1  0
  4 17  2  0
 17 18  1  0
 18 19  2  0
 19 20  1  0
 20 21  2  0
 21 22  1  0
 22 23  2  0
 23  2  1  0
 12  6  1  0
 23 18  1  0
 16  8  1  0
  1 24  1  0
  1 25  1  0
  1 26  1  0
  5 27  1  0
 12 28  1  0
 13 29  1  0
 13 30  1  0
 14 31  1  0
 14 32  1  0
 15 33  1  0
 15 34  1  0
 16 35  1  0
 16 36  1  0
 19 37  1  0
 20 38  1  0
 21 39  1  0
 22 40  1  0
M  END
>  <meeko>  (2) 
{"is_sidechain": false}

>  <CID>  (2) 
Z56890527

>  <pose_index>  (2) 
2

>  <docking_score>  (2) 
-9.822

>  <rmsd_to_best_selected>  (2) 
0.0

>  <MWT>  (2) 
307.3569999999997

>  <TPSA>  (2) 
83.56

>  <logP>  (2) 
2.6439200000000005

>  <HBD>  (2) 
2

>  <HBA>  (2) 
5

>  <SMILES>  (2) 
[H]c1c([H])c([H])c2c(C([H])([H])[H])nc(N([H])c3nc4c(c(=O)n3[H])C([H])([H])C([H])([H])C([H])([H])C4([H])[H])nc2c1[H]

$$$$
Z56890527_pose5
     RDKit          3D

 40 43  0  0  0  0  0  0  0  0999 V2000
    7.4460   45.1972   49.8252 C   0  0  0  0  0  0  0  0  0  0  0  0
    6.8728   45.3447   51.2066 C   0  0  0  0  0  0  0  0  0  0  0  0
    5.6643   44.7690   51.3982 N   0  0  0  0  0  0  0  0  0  0  0  0
    5.1064   44.8711   52.6157 C   0  0  0  0  0  0  0  0  0  0  0  0
    3.8718   44.3001   52.8673 N   0  0  0  0  0  0  0  0  0  0  0  0
    2.9291   44.6462   53.7805 C   0  0  0  0  0  0  0  0  0  0  0  0
    1.8256   43.9598   53.8395 N   0  0  0  0  0  0  0  0  0  0  0  0
    0.8789   44.3193   54.7689 C   0  0  0  0  0  0  0  0  0  0  0  0
    1.0130   45.3414   55.6320 C   0  0  0  0  0  0  0  0  0  0  0  0
    2.2633   46.1250   55.5594 C   0  0  0  0  0  0  0  0  0  0  0  0
    2.4793   47.0837   56.2931 O   0  0  0  0  0  0  0  0  0  0  0  0
    3.1500   45.7030   54.6183 N   0  0  0  0  0  0  0  0  0  0  0  0
   -0.0043   45.7304   56.6614 C   0  0  0  0  0  0  0  0  0  0  0  0
   -1.0870   44.6674   56.8572 C   0  0  0  0  0  0  0  0  0  0  0  0
   -1.5461   44.1016   55.5183 C   0  0  0  0  0  0  0  0  0  0  0  0
   -0.3765   43.4766   54.7560 C   0  0  0  0  0  0  0  0  0  0  0  0
    5.6816   45.5105   53.6421 N   0  0  0  0  0  0  0  0  0  0  0  0
    6.8779   46.0787   53.4454 C   0  0  0  0  0  0  0  0  0  0  0  0
    7.4814   46.7450   54.5049 C   0  0  0  0  0  0  0  0  0  0  0  0
    8.7287   47.3617   54.3771 C   0  0  0  0  0  0  0  0  0  0  0  0
    9.3972   47.3196   53.1609 C   0  0  0  0  0  0  0  0  0  0  0  0
    8.8141   46.6576   52.0836 C   0  0  0  0  0  0  0  0  0  0  0  0
    7.5489   46.0336   52.2183 C   0  0  0  0  0  0  0  0  0  0  0  0
    6.6294   45.1902   49.0882 H   0  0  0  0  0  0  0  0  0  0  0  0
    8.1211   46.0402   49.6165 H   0  0  0  0  0  0  0  0  0  0  0  0
    8.0070   44.2533   49.7599 H   0  0  0  0  0  0  0  0  0  0  0  0
    3.6718   43.5155   52.2680 H   0  0  0  0  0  0  0  0  0  0  0  0
    4.0227   46.2105   54.5321 H   0  0  0  0  0  0  0  0  0  0  0  0
    0.5097   45.8892   57.6208 H   0  0  0  0  0  0  0  0  0  0  0  0
   -0.5000   46.6463   56.3071 H   0  0  0  0  0  0  0  0  0  0  0  0
   -0.6821   43.8507   57.4729 H   0  0  0  0  0  0  0  0  0  0  0  0
   -1.9501   45.1339   57.3547 H   0  0  0  0  0  0  0  0  0  0  0  0
   -2.3114   43.3319   55.6966 H   0  0  0  0  0  0  0  0  0  0  0  0
   -1.9585   44.9232   54.9141 H   0  0  0  0  0  0  0  0  0  0  0  0
   -0.1455   42.5028   55.2126 H   0  0  0  0  0  0  0  0  0  0  0  0
   -0.6905   43.3845   53.7058 H   0  0  0  0  0  0  0  0  0  0  0  0
    6.9617   46.7882   55.4734 H   0  0  0  0  0  0  0  0  0  0  0  0
    9.1795   47.8787   55.2370 H   0  0  0  0  0  0  0  0  0  0  0  0
   10.3781   47.8048   53.0495 H   0  0  0  0  0  0  0  0  0  0  0  0
    9.3407   46.6184   51.1187 H   0  0  0  0  0  0  0  0  0  0  0  0
  1  2  1  0
  2  3  2  0
  3  4  1  0
  4  5  1  0
  5  6  1  0
  6  7  2  0
  7  8  1  0
  8  9  2  0
  9 10  1  0
 10 11  2  0
 10 12  1  0
  9 13  1  0
 13 14  1  0
 14 15  1  0
 15 16  1  0
  4 17  2  0
 17 18  1  0
 18 19  2  0
 19 20  1  0
 20 21  2  0
 21 22  1  0
 22 23  2  0
 23  2  1  0
 12  6  1  0
 23 18  1  0
 16  8  1  0
  1 24  1  0
  1 25  1  0
  1 26  1  0
  5 27  1  0
 12 28  1  0
 13 29  1  0
 13 30  1  0
 14 31  1  0
 14 32  1  0
 15 33  1  0
 15 34  1  0
 16 35  1  0
 16 36  1  0
 19 37  1  0
 20 38  1  0
 21 39  1  0
 22 40  1  0
M  END
>  <meeko>  (3) 
{"is_sidechain": false}

>  <CID>  (3) 
Z56890527

>  <pose_index>  (3) 
5

>  <docking_score>  (3) 
-9.528

>  <rmsd_to_best_selected>  (3) 
1.1620580958114723

>  <MWT>  (3) 
307.3569999999997

>  <TPSA>  (3) 
83.56

>  <logP>  (3) 
2.6439200000000005

>  <HBD>  (3) 
2

>  <HBA>  (3) 
5

>  <SMILES>  (3) 
[H]c1c([H])c([H])c2c(C([H])([H])[H])nc(N([H])c3nc4c(c(=O)n3[H])C([H])([H])C([H])([H])C([H])([H])C4([H])[H])nc2c1[H]

$$$$
Z56890527_pose6
     RDKit          3D

 40 43  0  0  0  0  0  0  0  0999 V2000
    7.7754   44.5820   50.1381 C   0  0  0  0  0  0  0  0  0  0  0  0
    6.9897   45.1226   51.2996 C   0  0  0  0  0  0  0  0  0  0  0  0
    5.7256   44.6588   51.4120 N   0  0  0  0  0  0  0  0  0  0  0  0
    4.9791   45.1102   52.4330 C   0  0  0  0  0  0  0  0  0  0  0  0
    3.6785   44.6665   52.5954 N   0  0  0  0  0  0  0  0  0  0  0  0
    2.8399   44.8164   53.6535 C   0  0  0  0  0  0  0  0  0  0  0  0
    1.6429   44.3128   53.5854 N   0  0  0  0  0  0  0  0  0  0  0  0
    0.8034   44.4704   54.6632 C   0  0  0  0  0  0  0  0  0  0  0  0
    1.1359   45.1147   55.7947 C   0  0  0  0  0  0  0  0  0  0  0  0
    2.4922   45.6938   55.8683 C   0  0  0  0  0  0  0  0  0  0  0  0
    2.8899   46.3111   56.8509 O   0  0  0  0  0  0  0  0  0  0  0  0
    3.2626   45.4906   54.7648 N   0  0  0  0  0  0  0  0  0  0  0  0
    0.2344   45.2758   56.9818 C   0  0  0  0  0  0  0  0  0  0  0  0
   -0.9987   44.3721   56.9188 C   0  0  0  0  0  0  0  0  0  0  0  0
   -1.5946   44.3576   55.5159 C   0  0  0  0  0  0  0  0  0  0  0  0
   -0.5712   43.8651   54.4899 C   0  0  0  0  0  0  0  0  0  0  0  0
    5.4203   45.9907   53.3392 N   0  0  0  0  0  0  0  0  0  0  0  0
    6.6732   46.4483   53.2228 C   0  0  0  0  0  0  0  0  0  0  0  0
    7.1394   47.3629   54.1578 C   0  0  0  0  0  0  0  0  0  0  0  0
    8.4350   47.8843   54.1024 C   0  0  0  0  0  0  0  0  0  0  0  0
    9.2943   47.4869   53.0865 C   0  0  0  0  0  0  0  0  0  0  0  0
    8.8520   46.5703   52.1359 C   0  0  0  0  0  0  0  0  0  0  0  0
    7.5378   46.0445   52.1973 C   0  0  0  0  0  0  0  0  0  0  0  0
    7.1289   44.5321   49.2496 H   0  0  0  0  0  0  0  0  0  0  0  0
    8.6296   45.2441   49.9333 H   0  0  0  0  0  0  0  0  0  0  0  0
    8.1428   43.5741   50.3813 H   0  0  0  0  0  0  0  0  0  0  0  0
    3.3309   44.1641   51.7955 H   0  0  0  0  0  0  0  0  0  0  0  0
    4.2018   45.8693   54.7707 H   0  0  0  0  0  0  0  0  0  0  0  0
    0.8035   45.0307   57.8907 H   0  0  0  0  0  0  0  0  0  0  0  0
   -0.1192   46.3174   56.9893 H   0  0  0  0  0  0  0  0  0  0  0  0
   -0.7087   43.3481   57.1970 H   0  0  0  0  0  0  0  0  0  0  0  0
   -1.7546   44.7617   57.6166 H   0  0  0  0  0  0  0  0  0  0  0  0
   -2.4676   43.6885   55.5028 H   0  0  0  0  0  0  0  0  0  0  0  0
   -1.8909   45.3832   55.2505 H   0  0  0  0  0  0  0  0  0  0  0  0
   -0.4838   42.7726   54.5835 H   0  0  0  0  0  0  0  0  0  0  0  0
   -0.9355   44.1738   53.4989 H   0  0  0  0  0  0  0  0  0  0  0  0
    6.4685   47.6869   54.9671 H   0  0  0  0  0  0  0  0  0  0  0  0
    8.7726   48.6065   54.8604 H   0  0  0  0  0  0  0  0  0  0  0  0
   10.3153   47.8926   53.0331 H   0  0  0  0  0  0  0  0  0  0  0  0
    9.5293   46.2515   51.3299 H   0  0  0  0  0  0  0  0  0  0  0  0
  1  2  1  0
  2  3  2  0
  3  4  1  0
  4  5  1  0
  5  6  1  0
  6  7  2  0
  7  8  1  0
  8  9  2  0
  9 10  1  0
 10 11  2  0
 10 12  1  0
  9 13  1  0
 13 14  1  0
 14 15  1  0
 15 16  1  0
  4 17  2  0
 17 18  1  0
 18 19  2  0
 19 20  1  0
 20 21  2  0
 21 22  1  0
 22 23  2  0
 23  2  1  0
 12  6  1  0
 23 18  1  0
 16  8  1  0
  1 24  1  0
  1 25  1  0
  1 26  1  0
  5 27  1  0
 12 28  1  0
 13 29  1  0
 13 30  1  0
 14 31  1  0
 14 32  1  0
 15 33  1  0
 15 34  1  0
 16 35  1  0
 16 36  1  0
 19 37  1  0
 20 38  1  0
 21 39  1  0
 22 40  1  0
M  END
>  <meeko>  (4) 
{"is_sidechain": false}

>  <CID>  (4) 
Z56890527

>  <pose_index>  (4) 
6

>  <docking_score>  (4) 
-9.379

>  <rmsd_to_best_selected>  (4) 
0.5967248556821582

>  <MWT>  (4) 
307.3569999999997

>  <TPSA>  (4) 
83.56

>  <logP>  (4) 
2.6439200000000005

>  <HBD>  (4) 
2

>  <HBA>  (4) 
5

>  <SMILES>  (4) 
[H]c1c([H])c([H])c2c(C([H])([H])[H])nc(N([H])c3nc4c(c(=O)n3[H])C([H])([H])C([H])([H])C([H])([H])C4([H])[H])nc2c1[H]

$$$$
Z56890527_pose7
     RDKit          3D

 40 43  0  0  0  0  0  0  0  0999 V2000
    7.8455   44.2948   50.4171 C   0  0  0  0  0  0  0  0  0  0  0  0
    7.0094   45.0371   51.4207 C   0  0  0  0  0  0  0  0  0  0  0  0
    5.7186   44.6443   51.5072 N   0  0  0  0  0  0  0  0  0  0  0  0
    4.9264   45.2764   52.3882 C   0  0  0  0  0  0  0  0  0  0  0  0
    3.5975   44.9136   52.5172 N   0  0  0  0  0  0  0  0  0  0  0  0
    2.8007   44.9308   53.6156 C   0  0  0  0  0  0  0  0  0  0  0  0
    1.5629   44.5427   53.5023 N   0  0  0  0  0  0  0  0  0  0  0  0
    0.7652   44.5641   54.6229 C   0  0  0  0  0  0  0  0  0  0  0  0
    1.1767   44.9610   55.8389 C   0  0  0  0  0  0  0  0  0  0  0  0
    2.5782   45.4081   55.9647 C   0  0  0  0  0  0  0  0  0  0  0  0
    3.0493   45.8010   57.0267 O   0  0  0  0  0  0  0  0  0  0  0  0
    3.3033   45.3520   54.8145 N   0  0  0  0  0  0  0  0  0  0  0  0
    0.3198   44.9700   57.0692 C   0  0  0  0  0  0  0  0  0  0  0  0
   -0.9852   44.1919   56.8897 C   0  0  0  0  0  0  0  0  0  0  0  0
   -1.6130   44.4839   55.5313 C   0  0  0  0  0  0  0  0  0  0  0  0
   -0.6590   44.1109   54.3945 C   0  0  0  0  0  0  0  0  0  0  0  0
    5.3479   46.2697   53.1813 N   0  0  0  0  0  0  0  0  0  0  0  0
    6.6269   46.6547   53.0926 C   0  0  0  0  0  0  0  0  0  0  0  0
    7.0718   47.6841   53.9117 C   0  0  0  0  0  0  0  0  0  0  0  0
    8.3926   48.1411   53.8763 C   0  0  0  0  0  0  0  0  0  0  0  0
    9.2991   47.5588   53.0004 C   0  0  0  0  0  0  0  0  0  0  0  0
    8.8784   46.5246   52.1683 C   0  0  0  0  0  0  0  0  0  0  0  0
    7.5383   46.0655   52.2080 C   0  0  0  0  0  0  0  0  0  0  0  0
    8.5716   44.9849   49.9628 H   0  0  0  0  0  0  0  0  0  0  0  0
    8.3821   43.4770   50.9203 H   0  0  0  0  0  0  0  0  0  0  0  0
    7.1949   43.8791   49.6336 H   0  0  0  0  0  0  0  0  0  0  0  0
    3.1911   44.5970   51.6524 H   0  0  0  0  0  0  0  0  0  0  0  0
    4.2701   45.6494   54.8525 H   0  0  0  0  0  0  0  0  0  0  0  0
    0.8874   44.5179   57.8959 H   0  0  0  0  0  0  0  0  0  0  0  0
    0.0546   46.0165   57.2799 H   0  0  0  0  0  0  0  0  0  0  0  0
   -0.7750   43.1148   56.9649 H   0  0  0  0  0  0  0  0  0  0  0  0
   -1.6895   44.5028   57.6754 H   0  0  0  0  0  0  0  0  0  0  0  0
   -2.5392   43.8992   55.4300 H   0  0  0  0  0  0  0  0  0  0  0  0
   -1.8281   45.5608   55.4690 H   0  0  0  0  0  0  0  0  0  0  0  0
   -0.6617   43.0165   54.2838 H   0  0  0  0  0  0  0  0  0  0  0  0
   -1.0189   44.6250   53.4911 H   0  0  0  0  0  0  0  0  0  0  0  0
    6.3634   48.1542   54.6096 H   0  0  0  0  0  0  0  0  0  0  0  0
    8.7123   48.9584   54.5394 H   0  0  0  0  0  0  0  0  0  0  0  0
   10.3404   47.9114   52.9641 H   0  0  0  0  0  0  0  0  0  0  0  0
    9.5932   46.0596   51.4734 H   0  0  0  0  0  0  0  0  0  0  0  0
  1  2  1  0
  2  3  2  0
  3  4  1  0
  4  5  1  0
  5  6  1  0
  6  7  2  0
  7  8  1  0
  8  9  2  0
  9 10  1  0
 10 11  2  0
 10 12  1  0
  9 13  1  0
 13 14  1  0
 14 15  1  0
 15 16  1  0
  4 17  2  0
 17 18  1  0
 18 19  2  0
 19 20  1  0
 20 21  2  0
 21 22  1  0
 22 23  2  0
 23  2  1  0
 12  6  1  0
 23 18  1  0
 16  8  1  0
  1 24  1  0
  1 25  1  0
  1 26  1  0
  5 27  1  0
 12 28  1  0
 13 29  1  0
 13 30  1  0
 14 31  1  0
 14 32  1  0
 15 33  1  0
 15 34  1  0
 16 35  1  0
 16 36  1  0
 19 37  1  0
 20 38  1  0
 21 39  1  0
 22 40  1  0
M  END
>  <meeko>  (5) 
{"is_sidechain": false}

>  <CID>  (5) 
Z56890527

>  <pose_index>  (5) 
7

>  <docking_score>  (5) 
-9.283

>  <rmsd_to_best_selected>  (5) 
0.26601722488538393

>  <MWT>  (5) 
307.3569999999997

>  <TPSA>  (5) 
83.56

>  <logP>  (5) 
2.6439200000000005

>  <HBD>  (5) 
2

>  <HBA>  (5) 
5

>  <SMILES>  (5) 
[H]c1c([H])c([H])c2c(C([H])([H])[H])nc(N([H])c3nc4c(c(=O)n3[H])C([H])([H])C([H])([H])C([H])([H])C4([H])[H])nc2c1[H]

$$$$
Z56890527_pose9
     RDKit          3D

 40 43  0  0  0  0  0  0  0  0999 V2000
    7.9538   44.1408   50.5784 C   0  0  0  0  0  0  0  0  0  0  0  0
    7.0726   44.9267   51.5079 C   0  0  0  0  0  0  0  0  0  0  0  0
    5.7987   44.4877   51.6112 N   0  0  0  0  0  0  0  0  0  0  0  0
    4.9677   45.1544   52.4291 C   0  0  0  0  0  0  0  0  0  0  0  0
    3.6533   44.7465   52.5721 N   0  0  0  0  0  0  0  0  0  0  0  0
    2.8288   44.8504   53.6455 C   0  0  0  0  0  0  0  0  0  0  0  0
    1.6130   44.3948   53.5527 N   0  0  0  0  0  0  0  0  0  0  0  0
    0.7882   44.5050   54.6471 C   0  0  0  0  0  0  0  0  0  0  0  0
    1.1501   45.0549   55.8189 C   0  0  0  0  0  0  0  0  0  0  0  0
    2.5285   45.5780   55.9206 C   0  0  0  0  0  0  0  0  0  0  0  0
    2.9541   46.1098   56.9405 O   0  0  0  0  0  0  0  0  0  0  0  0
    3.2828   45.4270   54.7985 N   0  0  0  0  0  0  0  0  0  0  0  0
    0.2646   45.1616   57.0227 C   0  0  0  0  0  0  0  0  0  0  0  0
   -1.0009   44.3089   56.9071 C   0  0  0  0  0  0  0  0  0  0  0  0
   -1.6069   44.4169   55.5131 C   0  0  0  0  0  0  0  0  0  0  0  0
   -0.6095   43.9634   54.4445 C   0  0  0  0  0  0  0  0  0  0  0  0
    5.3356   46.2249   53.1432 N   0  0  0  0  0  0  0  0  0  0  0  0
    6.5987   46.6558   53.0371 C   0  0  0  0  0  0  0  0  0  0  0  0
    6.9883   47.7665   53.7758 C   0  0  0  0  0  0  0  0  0  0  0  0
    8.2892   48.2748   53.7182 C   0  0  0  0  0  0  0  0  0  0  0  0
    9.2325   47.6631   52.9023 C   0  0  0  0  0  0  0  0  0  0  0  0
    8.8672   46.5472   52.1532 C   0  0  0  0  0  0  0  0  0  0  0  0
    7.5471   46.0364   52.2154 C   0  0  0  0  0  0  0  0  0  0  0  0
    8.2353   43.1906   51.0558 H   0  0  0  0  0  0  0  0  0  0  0  0
    7.4103   43.9350   49.6444 H   0  0  0  0  0  0  0  0  0  0  0  0
    8.8608   44.7215   50.3545 H   0  0  0  0  0  0  0  0  0  0  0  0
    3.2823   44.3158   51.7415 H   0  0  0  0  0  0  0  0  0  0  0  0
    4.2345   45.7710   54.8213 H   0  0  0  0  0  0  0  0  0  0  0  0
    0.8312   44.8314   57.9059 H   0  0  0  0  0  0  0  0  0  0  0  0
   -0.0511   46.2118   57.1089 H   0  0  0  0  0  0  0  0  0  0  0  0
   -0.7460   43.2579   57.1081 H   0  0  0  0  0  0  0  0  0  0  0  0
   -1.7372   44.6736   57.6385 H   0  0  0  0  0  0  0  0  0  0  0  0
   -2.5036   43.7820   55.4606 H   0  0  0  0  0  0  0  0  0  0  0  0
   -1.8677   45.4688   55.3250 H   0  0  0  0  0  0  0  0  0  0  0  0
   -0.5613   42.8646   54.4586 H   0  0  0  0  0  0  0  0  0  0  0  0
   -0.9695   44.3560   53.4821 H   0  0  0  0  0  0  0  0  0  0  0  0
    6.2508   48.2607   54.4254 H   0  0  0  0  0  0  0  0  0  0  0  0
    8.5648   49.1556   54.3166 H   0  0  0  0  0  0  0  0  0  0  0  0
   10.2584   48.0564   52.8484 H   0  0  0  0  0  0  0  0  0  0  0  0
    9.6108   46.0576   51.5071 H   0  0  0  0  0  0  0  0  0  0  0  0
  1  2  1  0
  2  3  2  0
  3  4  1  0
  4  5  1  0
  5  6  1  0
  6  7  2  0
  7  8  1  0
  8  9  2  0
  9 10  1  0
 10 11  2  0
 10 12  1  0
  9 13  1  0
 13 14  1  0
 14 15  1  0
 15 16  1  0
  4 17  2  0
 17 18  1  0
 18 19  2  0
 19 20  1  0
 20 21  2  0
 21 22  1  0
 22 23  2  0
 23  2  1  0
 12  6  1  0
 23 18  1  0
 16  8  1  0
  1 24  1  0
  1 25  1  0
  1 26  1  0
  5 27  1  0
 12 28  1  0
 13 29  1  0
 13 30  1  0
 14 31  1  0
 14 32  1  0
 15 33  1  0
 15 34  1  0
 16 35  1  0
 16 36  1  0
 19 37  1  0
 20 38  1  0
 21 39  1  0
 22 40  1  0
M  END
>  <meeko>  (6) 
{"is_sidechain": false}

>  <CID>  (6) 
Z56890527

>  <pose_index>  (6) 
9

>  <docking_score>  (6) 
-9.193

>  <rmsd_to_best_selected>  (6) 
0.3480155630312032

>  <MWT>  (6) 
307.3569999999997

>  <TPSA>  (6) 
83.56

>  <logP>  (6) 
2.6439200000000005

>  <HBD>  (6) 
2

>  <HBA>  (6) 
5

>  <SMILES>  (6) 
[H]c1c([H])c([H])c2c(C([H])([H])[H])nc(N([H])c3nc4c(c(=O)n3[H])C([H])([H])C([H])([H])C([H])([H])C4([H])[H])nc2c1[H]

$$$$
