Z57110395_pose1
     RDKit          3D

 40 43  0  0  0  0  0  0  0  0999 V2000
   -0.5130   42.3150   53.8400 O   0  0  0  0  0  0  0  0  0  0  0  0
   -0.6640   43.5310   54.1830 C   0  0  0  0  0  0  0  0  0  0  0  0
   -1.7350   44.0480   54.6320 O   0  0  0  0  0  1  0  0  0  0  0  0
    0.5410   44.4430   54.0450 C   0  0  0  0  0  0  0  0  0  0  0  0
    0.7400   45.2130   52.8920 C   0  0  0  0  0  0  0  0  0  0  0  0
    1.8550   46.0560   52.7630 C   0  0  0  0  0  0  0  0  0  0  0  0
    2.8070   46.1570   53.7800 C   0  0  0  0  0  0  0  0  0  0  0  0
    3.9410   46.9750   53.7170 N   0  0  0  0  0  0  0  0  0  0  0  0
    5.2760   46.7620   53.3950 C   0  0  0  0  0  0  0  0  0  0  0  0
    5.4780   45.9560   52.3440 N   0  0  0  0  0  0  0  0  0  0  0  0
    6.7540   45.7010   51.9810 C   0  0  0  0  0  0  0  0  0  0  0  0
    6.8670   44.7850   50.8340 C   0  0  0  0  0  0  0  0  0  0  0  0
    5.9150   43.7720   50.6350 C   0  0  0  0  0  0  0  0  0  0  0  0
    6.0130   42.8990   49.5490 C   0  0  0  0  0  0  0  0  0  0  0  0
    7.0700   43.0210   48.6500 C   0  0  0  0  0  0  0  0  0  0  0  0
    8.0330   44.0090   48.8400 C   0  0  0  0  0  0  0  0  0  0  0  0
    7.9350   44.8820   49.9250 C   0  0  0  0  0  0  0  0  0  0  0  0
    7.8600   46.2570   52.6360 C   0  0  0  0  0  0  0  0  0  0  0  0
    9.2260   46.0660   52.2890 C   0  0  0  0  0  0  0  0  0  0  0  0
   10.2400   46.6760   53.0220 C   0  0  0  0  0  0  0  0  0  0  0  0
    9.9070   47.4830   54.1010 C   0  0  0  0  0  0  0  0  0  0  0  0
    8.5630   47.6760   54.4330 C   0  0  0  0  0  0  0  0  0  0  0  0
    7.5330   47.0790   53.7150 C   0  0  0  0  0  0  0  0  0  0  0  0
    6.2740   47.3220   54.0860 N   0  0  0  0  0  0  0  0  0  0  0  0
    2.6050   45.3840   54.9360 C   0  0  0  0  0  0  0  0  0  0  0  0
    1.4930   44.5420   55.0670 C   0  0  0  0  0  0  0  0  0  0  0  0
    0.0088   45.1560   52.0722 H   0  0  0  0  0  0  0  0  0  0  0  0
    1.9813   46.6477   51.8444 H   0  0  0  0  0  0  0  0  0  0  0  0
    3.8030   47.9480   53.9470 H   0  0  0  0  0  0  0  0  0  0  0  0
    5.0808   43.6645   51.3439 H   0  0  0  0  0  0  0  0  0  0  0  0
    5.2553   42.1150   49.4037 H   0  0  0  0  0  0  0  0  0  0  0  0
    7.1440   42.3378   47.7911 H   0  0  0  0  0  0  0  0  0  0  0  0
    8.8718   44.1016   48.1344 H   0  0  0  0  0  0  0  0  0  0  0  0
    8.7033   45.6557   50.0705 H   0  0  0  0  0  0  0  0  0  0  0  0
    9.4844   45.4283   51.4307 H   0  0  0  0  0  0  0  0  0  0  0  0
   11.2941   46.5201   52.7490 H   0  0  0  0  0  0  0  0  0  0  0  0
   10.6973   47.9686   54.6923 H   0  0  0  0  0  0  0  0  0  0  0  0
    8.3125   48.3201   55.2888 H   0  0  0  0  0  0  0  0  0  0  0  0
    3.3360   45.4413   55.7560 H   0  0  0  0  0  0  0  0  0  0  0  0
    1.3660   43.9504   55.9856 H   0  0  0  0  0  0  0  0  0  0  0  0
  1  2  2  0
  2  3  1  0
  2  4  1  0
  4  5  2  0
  5  6  1  0
  6  7  2  0
  7  8  1  0
  8  9  1  0
  9 10  2  0
 10 11  1  0
 11 12  1  0
 12 13  2  0
 13 14  1  0
 14 15  2  0
 15 16  1  0
 16 17  2  0
 11 18  2  0
 18 19  1  0
 19 20  2  0
 20 21  1  0
 21 22  2  0
 22 23  1  0
 23 24  2  0
  7 25  1  0
 25 26  2  0
 26  4  1  0
 24  9  1  0
 17 12  1  0
 23 18  1  0
  5 27  1  0
  6 28  1  0
  8 29  1  0
 13 30  1  0
 14 31  1  0
 15 32  1  0
 16 33  1  0
 17 34  1  0
 19 35  1  0
 20 36  1  0
 21 37  1  0
 22 38  1  0
 25 39  1  0
 26 40  1  0
M  CHG  1   3  -1
M  END
>  <meeko>  (1) 
{"is_sidechain": false}

>  <CID>  (1) 
Z57110395

>  <pose_index>  (1) 
1

>  <docking_score>  (1) 
-10.546

>  <rmsd_to_best_selected>  (1) 
0.0

>  <MWT>  (1) 
340.3619999999998

>  <TPSA>  (1) 
77.94

>  <logP>  (1) 
3.403900000000001

>  <HBD>  (1) 
1

>  <HBA>  (1) 
5

>  <SMILES>  (1) 
[H]c1c([H])c([H])c(-c2nc(N([H])c3c([H])c([H])c(C(=O)[O-])c([H])c3[H])nc3c([H])c([H])c([H])c([H])c23)c([H])c1[H]

$$$$
Z57110395_pose2
     RDKit          3D

 40 43  0  0  0  0  0  0  0  0999 V2000
   -1.1820   43.0643   54.3571 O   0  0  0  0  0  0  0  0  0  0  0  0
   -0.8457   43.9036   53.4615 C   0  0  0  0  0  0  0  0  0  0  0  0
   -1.5133   44.1797   52.4157 O   0  0  0  0  0  1  0  0  0  0  0  0
    0.4675   44.6371   53.6597 C   0  0  0  0  0  0  0  0  0  0  0  0
    1.1086   45.2784   52.5927 C   0  0  0  0  0  0  0  0  0  0  0  0
    2.3238   45.9571   52.7760 C   0  0  0  0  0  0  0  0  0  0  0  0
    2.9386   46.0156   54.0290 C   0  0  0  0  0  0  0  0  0  0  0  0
    4.1484   46.6726   54.2810 N   0  0  0  0  0  0  0  0  0  0  0  0
    5.4418   46.5497   53.7848 C   0  0  0  0  0  0  0  0  0  0  0  0
    5.5582   45.7655   52.7058 N   0  0  0  0  0  0  0  0  0  0  0  0
    6.7895   45.5975   52.1776 C   0  0  0  0  0  0  0  0  0  0  0  0
    6.8119   44.6975   51.0130 C   0  0  0  0  0  0  0  0  0  0  0  0
    6.4068   45.1581   49.7498 C   0  0  0  0  0  0  0  0  0  0  0  0
    6.4265   44.3128   48.6378 C   0  0  0  0  0  0  0  0  0  0  0  0
    6.8420   42.9906   48.7755 C   0  0  0  0  0  0  0  0  0  0  0  0
    7.2332   42.5107   50.0228 C   0  0  0  0  0  0  0  0  0  0  0  0
    7.2151   43.3567   51.1347 C   0  0  0  0  0  0  0  0  0  0  0  0
    7.9324   46.2215   52.6920 C   0  0  0  0  0  0  0  0  0  0  0  0
    9.2506   46.1240   52.1692 C   0  0  0  0  0  0  0  0  0  0  0  0
   10.3100   46.7959   52.7739 C   0  0  0  0  0  0  0  0  0  0  0  0
   10.0689   47.5721   53.8978 C   0  0  0  0  0  0  0  0  0  0  0  0
    8.7694   47.6738   54.4030 C   0  0  0  0  0  0  0  0  0  0  0  0
    7.6960   47.0145   53.8162 C   0  0  0  0  0  0  0  0  0  0  0  0
    6.4827   47.1708   54.3496 N   0  0  0  0  0  0  0  0  0  0  0  0
    2.2929   45.3706   55.0968 C   0  0  0  0  0  0  0  0  0  0  0  0
    1.0802   44.6938   54.9169 C   0  0  0  0  0  0  0  0  0  0  0  0
    0.6516   45.2499   51.5925 H   0  0  0  0  0  0  0  0  0  0  0  0
    2.8006   46.4519   51.9170 H   0  0  0  0  0  0  0  0  0  0  0  0
    4.1216   47.4100   54.9676 H   0  0  0  0  0  0  0  0  0  0  0  0
    6.0693   46.1986   49.6343 H   0  0  0  0  0  0  0  0  0  0  0  0
    6.1139   44.6914   47.6534 H   0  0  0  0  0  0  0  0  0  0  0  0
    6.8611   42.3257   47.8994 H   0  0  0  0  0  0  0  0  0  0  0  0
    7.5567   41.4652   50.1328 H   0  0  0  0  0  0  0  0  0  0  0  0
    7.5202   42.9684   52.1176 H   0  0  0  0  0  0  0  0  0  0  0  0
    9.4363   45.5099   51.2757 H   0  0  0  0  0  0  0  0  0  0  0  0
   11.3275   46.7119   52.3644 H   0  0  0  0  0  0  0  0  0  0  0  0
   10.8962   48.1051   54.3892 H   0  0  0  0  0  0  0  0  0  0  0  0
    8.5909   48.2952   55.2929 H   0  0  0  0  0  0  0  0  0  0  0  0
    2.7501   45.3978   56.0969 H   0  0  0  0  0  0  0  0  0  0  0  0
    0.6024   44.1997   55.7757 H   0  0  0  0  0  0  0  0  0  0  0  0
  1  2  2  0
  2  3  1  0
  2  4  1  0
  4  5  2  0
  5  6  1  0
  6  7  2  0
  7  8  1  0
  8  9  1  0
  9 10  2  0
 10 11  1  0
 11 12  1  0
 12 13  2  0
 13 14  1  0
 14 15  2  0
 15 16  1  0
 16 17  2  0
 11 18  2  0
 18 19  1  0
 19 20  2  0
 20 21  1  0
 21 22  2  0
 22 23  1  0
 23 24  2  0
  7 25  1  0
 25 26  2  0
 26  4  1  0
 24  9  1  0
 17 12  1  0
 23 18  1  0
  5 27  1  0
  6 28  1  0
  8 29  1  0
 13 30  1  0
 14 31  1  0
 15 32  1  0
 16 33  1  0
 17 34  1  0
 19 35  1  0
 20 36  1  0
 21 37  1  0
 22 38  1  0
 25 39  1  0
 26 40  1  0
M  CHG  1   3  -1
M  END
>  <meeko>  (2) 
{"is_sidechain": false}

>  <CID>  (2) 
Z57110395

>  <pose_index>  (2) 
2

>  <docking_score>  (2) 
-9.566

>  <rmsd_to_best_selected>  (2) 
1.1398345757572395

>  <MWT>  (2) 
340.3619999999998

>  <TPSA>  (2) 
77.94

>  <logP>  (2) 
3.403900000000001

>  <HBD>  (2) 
1

>  <HBA>  (2) 
5

>  <SMILES>  (2) 
[H]c1c([H])c([H])c(-c2nc(N([H])c3c([H])c([H])c(C(=O)[O-])c([H])c3[H])nc3c([H])c([H])c([H])c([H])c23)c([H])c1[H]

$$$$
Z57110395_pose3
     RDKit          3D

 40 43  0  0  0  0  0  0  0  0999 V2000
   -1.3178   43.1353   53.6702 O   0  0  0  0  0  0  0  0  0  0  0  0
   -0.6369   43.5480   54.6640 C   0  0  0  0  0  0  0  0  0  0  0  0
   -0.8612   43.2681   55.8834 O   0  0  0  0  0  1  0  0  0  0  0  0
    0.5442   44.4516   54.3640 C   0  0  0  0  0  0  0  0  0  0  0  0
    0.8625   45.5297   55.1998 C   0  0  0  0  0  0  0  0  0  0  0  0
    1.9557   46.3662   54.9231 C   0  0  0  0  0  0  0  0  0  0  0  0
    2.7638   46.1551   53.8032 C   0  0  0  0  0  0  0  0  0  0  0  0
    3.8659   46.9499   53.4679 N   0  0  0  0  0  0  0  0  0  0  0  0
    5.2125   46.6943   53.2338 C   0  0  0  0  0  0  0  0  0  0  0  0
    5.4660   45.9991   52.1180 N   0  0  0  0  0  0  0  0  0  0  0  0
    6.7548   45.7099   51.8336 C   0  0  0  0  0  0  0  0  0  0  0  0
    6.9233   44.9212   50.6030 C   0  0  0  0  0  0  0  0  0  0  0  0
    7.3124   45.5427   49.4055 C   0  0  0  0  0  0  0  0  0  0  0  0
    7.4756   44.8030   48.2322 C   0  0  0  0  0  0  0  0  0  0  0  0
    7.2439   43.4300   48.2366 C   0  0  0  0  0  0  0  0  0  0  0  0
    6.8424   42.7971   49.4111 C   0  0  0  0  0  0  0  0  0  0  0  0
    6.6792   43.5368   50.5844 C   0  0  0  0  0  0  0  0  0  0  0  0
    7.8254   46.1238   52.6374 C   0  0  0  0  0  0  0  0  0  0  0  0
    9.2049   45.8912   52.3836 C   0  0  0  0  0  0  0  0  0  0  0  0
   10.1799   46.3559   53.2628 C   0  0  0  0  0  0  0  0  0  0  0  0
    9.7933   47.0567   54.3960 C   0  0  0  0  0  0  0  0  0  0  0  0
    8.4368   47.2919   54.6367 C   0  0  0  0  0  0  0  0  0  0  0  0
    7.4458   46.8401   53.7726 C   0  0  0  0  0  0  0  0  0  0  0  0
    6.1719   47.1143   54.0642 N   0  0  0  0  0  0  0  0  0  0  0  0
    2.4425   45.0727   52.9673 C   0  0  0  0  0  0  0  0  0  0  0  0
    1.3523   44.2353   53.2413 C   0  0  0  0  0  0  0  0  0  0  0  0
    0.2450   45.7244   56.0890 H   0  0  0  0  0  0  0  0  0  0  0  0
    2.1800   47.2033   55.6006 H   0  0  0  0  0  0  0  0  0  0  0  0
    3.6876   47.9363   53.3585 H   0  0  0  0  0  0  0  0  0  0  0  0
    7.4913   46.6280   49.3913 H   0  0  0  0  0  0  0  0  0  0  0  0
    7.7873   45.3051   47.3044 H   0  0  0  0  0  0  0  0  0  0  0  0
    7.3777   42.8459   47.3142 H   0  0  0  0  0  0  0  0  0  0  0  0
    6.6537   41.7134   49.4143 H   0  0  0  0  0  0  0  0  0  0  0  0
    6.3557   43.0299   51.5055 H   0  0  0  0  0  0  0  0  0  0  0  0
    9.5057   45.3375   51.4819 H   0  0  0  0  0  0  0  0  0  0  0  0
   11.2450   46.1692   53.0610 H   0  0  0  0  0  0  0  0  0  0  0  0
   10.5514   47.4258   55.1024 H   0  0  0  0  0  0  0  0  0  0  0  0
    8.1444   47.8516   55.5374 H   0  0  0  0  0  0  0  0  0  0  0  0
    3.0601   44.8779   52.0782 H   0  0  0  0  0  0  0  0  0  0  0  0
    1.1286   43.3970   52.5651 H   0  0  0  0  0  0  0  0  0  0  0  0
  1  2  2  0
  2  3  1  0
  2  4  1  0
  4  5  2  0
  5  6  1  0
  6  7  2  0
  7  8  1  0
  8  9  1  0
  9 10  2  0
 10 11  1  0
 11 12  1  0
 12 13  2  0
 13 14  1  0
 14 15  2  0
 15 16  1  0
 16 17  2  0
 11 18  2  0
 18 19  1  0
 19 20  2  0
 20 21  1  0
 21 22  2  0
 22 23  1  0
 23 24  2  0
  7 25  1  0
 25 26  2  0
 26  4  1  0
 24  9  1  0
 17 12  1  0
 23 18  1  0
  5 27  1  0
  6 28  1  0
  8 29  1  0
 13 30  1  0
 14 31  1  0
 15 32  1  0
 16 33  1  0
 17 34  1  0
 19 35  1  0
 20 36  1  0
 21 37  1  0
 22 38  1  0
 25 39  1  0
 26 40  1  0
M  CHG  1   3  -1
M  END
>  <meeko>  (3) 
{"is_sidechain": false}

>  <CID>  (3) 
Z57110395

>  <pose_index>  (3) 
3

>  <docking_score>  (3) 
-9.55

>  <rmsd_to_best_selected>  (3) 
1.0616985582600778

>  <MWT>  (3) 
340.3619999999998

>  <TPSA>  (3) 
77.94

>  <logP>  (3) 
3.403900000000001

>  <HBD>  (3) 
1

>  <HBA>  (3) 
5

>  <SMILES>  (3) 
[H]c1c([H])c([H])c(-c2nc(N([H])c3c([H])c([H])c(C(=O)[O-])c([H])c3[H])nc3c([H])c([H])c([H])c([H])c23)c([H])c1[H]

$$$$
Z57110395_pose5
     RDKit          3D

 40 43  0  0  0  0  0  0  0  0999 V2000
   -1.0073   42.6864   53.9123 O   0  0  0  0  0  0  0  0  0  0  0  0
   -0.7692   43.7818   53.3089 C   0  0  0  0  0  0  0  0  0  0  0  0
   -1.5288   44.3383   52.4547 O   0  0  0  0  0  1  0  0  0  0  0  0
    0.5358   44.4817   53.6360 C   0  0  0  0  0  0  0  0  0  0  0  0
    1.1403   44.3405   54.8918 C   0  0  0  0  0  0  0  0  0  0  0  0
    2.3476   44.9882   55.1958 C   0  0  0  0  0  0  0  0  0  0  0  0
    2.9909   45.7980   54.2565 C   0  0  0  0  0  0  0  0  0  0  0  0
    4.1942   46.4734   54.4927 N   0  0  0  0  0  0  0  0  0  0  0  0
    5.4689   46.4056   53.9441 C   0  0  0  0  0  0  0  0  0  0  0  0
    5.5440   45.7630   52.7721 N   0  0  0  0  0  0  0  0  0  0  0  0
    6.7565   45.6545   52.1869 C   0  0  0  0  0  0  0  0  0  0  0  0
    6.7328   44.9083   50.9183 C   0  0  0  0  0  0  0  0  0  0  0  0
    7.1699   43.5749   50.8683 C   0  0  0  0  0  0  0  0  0  0  0  0
    7.1498   42.8572   49.6695 C   0  0  0  0  0  0  0  0  0  0  0  0
    6.7007   43.4674   48.4999 C   0  0  0  0  0  0  0  0  0  0  0  0
    6.2784   44.7942   48.5267 C   0  0  0  0  0  0  0  0  0  0  0  0
    6.2969   45.5112   49.7255 C   0  0  0  0  0  0  0  0  0  0  0  0
    7.9218   46.2015   52.7382 C   0  0  0  0  0  0  0  0  0  0  0  0
    9.2215   46.1623   52.1646 C   0  0  0  0  0  0  0  0  0  0  0  0
   10.3065   46.7451   52.8143 C   0  0  0  0  0  0  0  0  0  0  0  0
   10.1080   47.3761   54.0344 C   0  0  0  0  0  0  0  0  0  0  0  0
    8.8272   47.4213   54.5905 C   0  0  0  0  0  0  0  0  0  0  0  0
    7.7285   46.8480   53.9601 C   0  0  0  0  0  0  0  0  0  0  0  0
    6.5341   46.9443   54.5483 N   0  0  0  0  0  0  0  0  0  0  0  0
    2.3825   45.9377   52.9980 C   0  0  0  0  0  0  0  0  0  0  0  0
    1.1780   45.2922   52.6915 C   0  0  0  0  0  0  0  0  0  0  0  0
    0.6595   43.7100   55.6541 H   0  0  0  0  0  0  0  0  0  0  0  0
    2.7955   44.8559   56.1917 H   0  0  0  0  0  0  0  0  0  0  0  0
    4.1755   47.1784   55.2136 H   0  0  0  0  0  0  0  0  0  0  0  0
    7.5333   43.0884   51.7855 H   0  0  0  0  0  0  0  0  0  0  0  0
    7.4884   41.8108   49.6490 H   0  0  0  0  0  0  0  0  0  0  0  0
    6.6798   42.9018   47.5567 H   0  0  0  0  0  0  0  0  0  0  0  0
    5.9297   45.2784   47.6025 H   0  0  0  0  0  0  0  0  0  0  0  0
    5.9664   46.5603   49.7362 H   0  0  0  0  0  0  0  0  0  0  0  0
    9.3723   45.6652   51.1950 H   0  0  0  0  0  0  0  0  0  0  0  0
   11.3100   46.7059   52.3654 H   0  0  0  0  0  0  0  0  0  0  0  0
   10.9555   47.8387   54.5614 H   0  0  0  0  0  0  0  0  0  0  0  0
    8.6834   47.9261   55.5572 H   0  0  0  0  0  0  0  0  0  0  0  0
    2.8632   46.5686   52.2358 H   0  0  0  0  0  0  0  0  0  0  0  0
    0.7302   45.4235   51.6954 H   0  0  0  0  0  0  0  0  0  0  0  0
  1  2  2  0
  2  3  1  0
  2  4  1  0
  4  5  2  0
  5  6  1  0
  6  7  2  0
  7  8  1  0
  8  9  1  0
  9 10  2  0
 10 11  1  0
 11 12  1  0
 12 13  2  0
 13 14  1  0
 14 15  2  0
 15 16  1  0
 16 17  2  0
 11 18  2  0
 18 19  1  0
 19 20  2  0
 20 21  1  0
 21 22  2  0
 22 23  1  0
 23 24  2  0
  7 25  1  0
 25 26  2  0
 26  4  1  0
 24  9  1  0
 17 12  1  0
 23 18  1  0
  5 27  1  0
  6 28  1  0
  8 29  1  0
 13 30  1  0
 14 31  1  0
 15 32  1  0
 16 33  1  0
 17 34  1  0
 19 35  1  0
 20 36  1  0
 21 37  1  0
 22 38  1  0
 25 39  1  0
 26 40  1  0
M  CHG  1   3  -1
M  END
>  <meeko>  (4) 
{"is_sidechain": false}

>  <CID>  (4) 
Z57110395

>  <pose_index>  (4) 
5

>  <docking_score>  (4) 
-9.446

>  <rmsd_to_best_selected>  (4) 
1.1510936317937541

>  <MWT>  (4) 
340.3619999999998

>  <TPSA>  (4) 
77.94

>  <logP>  (4) 
3.403900000000001

>  <HBD>  (4) 
1

>  <HBA>  (4) 
5

>  <SMILES>  (4) 
[H]c1c([H])c([H])c(-c2nc(N([H])c3c([H])c([H])c(C(=O)[O-])c([H])c3[H])nc3c([H])c([H])c([H])c([H])c23)c([H])c1[H]

$$$$
Z57110395_pose6
     RDKit          3D

 40 43  0  0  0  0  0  0  0  0999 V2000
   -1.8492   45.5050   54.3671 O   0  0  0  0  0  0  0  0  0  0  0  0
   -1.0781   44.8488   53.5957 C   0  0  0  0  0  0  0  0  0  0  0  0
   -1.4405   44.1834   52.5754 O   0  0  0  0  0  1  0  0  0  0  0  0
    0.4027   44.8642   53.9233 C   0  0  0  0  0  0  0  0  0  0  0  0
    0.8539   45.0423   55.2377 C   0  0  0  0  0  0  0  0  0  0  0  0
    2.2239   45.0572   55.5405 C   0  0  0  0  0  0  0  0  0  0  0  0
    3.1884   44.8959   54.5430 C   0  0  0  0  0  0  0  0  0  0  0  0
    4.5684   44.9016   54.7747 N   0  0  0  0  0  0  0  0  0  0  0  0
    5.6675   45.3993   54.0844 C   0  0  0  0  0  0  0  0  0  0  0  0
    5.8181   44.9168   52.8451 N   0  0  0  0  0  0  0  0  0  0  0  0
    6.8708   45.3530   52.1201 C   0  0  0  0  0  0  0  0  0  0  0  0
    6.9598   44.7420   50.7841 C   0  0  0  0  0  0  0  0  0  0  0  0
    5.9655   43.8564   50.3383 C   0  0  0  0  0  0  0  0  0  0  0  0
    6.0399   43.2727   49.0709 C   0  0  0  0  0  0  0  0  0  0  0  0
    7.1160   43.5587   48.2348 C   0  0  0  0  0  0  0  0  0  0  0  0
    8.1213   44.4222   48.6654 C   0  0  0  0  0  0  0  0  0  0  0  0
    8.0450   45.0074   49.9319 C   0  0  0  0  0  0  0  0  0  0  0  0
    7.7871   46.2985   52.5982 C   0  0  0  0  0  0  0  0  0  0  0  0
    8.8932   46.8334   51.8833 C   0  0  0  0  0  0  0  0  0  0  0  0
    9.7370   47.7721   52.4720 C   0  0  0  0  0  0  0  0  0  0  0  0
    9.4862   48.1890   53.7719 C   0  0  0  0  0  0  0  0  0  0  0  0
    8.3930   47.6689   54.4676 C   0  0  0  0  0  0  0  0  0  0  0  0
    7.5359   46.7324   53.9013 C   0  0  0  0  0  0  0  0  0  0  0  0
    6.5043   46.2912   54.6248 N   0  0  0  0  0  0  0  0  0  0  0  0
    2.7336   44.7178   53.2259 C   0  0  0  0  0  0  0  0  0  0  0  0
    1.3660   44.7020   52.9199 C   0  0  0  0  0  0  0  0  0  0  0  0
    0.1206   45.1728   56.0471 H   0  0  0  0  0  0  0  0  0  0  0  0
    2.5445   45.1985   56.5832 H   0  0  0  0  0  0  0  0  0  0  0  0
    4.8802   44.4584   55.6252 H   0  0  0  0  0  0  0  0  0  0  0  0
    5.1162   43.6189   50.9958 H   0  0  0  0  0  0  0  0  0  0  0  0
    5.2485   42.5872   48.7338 H   0  0  0  0  0  0  0  0  0  0  0  0
    7.1724   43.1033   47.2351 H   0  0  0  0  0  0  0  0  0  0  0  0
    8.9751   44.6432   48.0081 H   0  0  0  0  0  0  0  0  0  0  0  0
    8.8449   45.6845   50.2661 H   0  0  0  0  0  0  0  0  0  0  0  0
    9.0852   46.5018   50.8521 H   0  0  0  0  0  0  0  0  0  0  0  0
   10.5927   48.1786   51.9130 H   0  0  0  0  0  0  0  0  0  0  0  0
   10.1461   48.9264   54.2522 H   0  0  0  0  0  0  0  0  0  0  0  0
    8.2041   48.0109   55.4959 H   0  0  0  0  0  0  0  0  0  0  0  0
    3.4672   44.5880   52.4167 H   0  0  0  0  0  0  0  0  0  0  0  0
    1.0449   44.5603   51.8774 H   0  0  0  0  0  0  0  0  0  0  0  0
  1  2  2  0
  2  3  1  0
  2  4  1  0
  4  5  2  0
  5  6  1  0
  6  7  2  0
  7  8  1  0
  8  9  1  0
  9 10  2  0
 10 11  1  0
 11 12  1  0
 12 13  2  0
 13 14  1  0
 14 15  2  0
 15 16  1  0
 16 17  2  0
 11 18  2  0
 18 19  1  0
 19 20  2  0
 20 21  1  0
 21 22  2  0
 22 23  1  0
 23 24  2  0
  7 25  1  0
 25 26  2  0
 26  4  1  0
 24  9  1  0
 17 12  1  0
 23 18  1  0
  5 27  1  0
  6 28  1  0
  8 29  1  0
 13 30  1  0
 14 31  1  0
 15 32  1  0
 16 33  1  0
 17 34  1  0
 19 35  1  0
 20 36  1  0
 21 37  1  0
 22 38  1  0
 25 39  1  0
 26 40  1  0
M  CHG  1   3  -1
M  END
>  <meeko>  (5) 
{"is_sidechain": false}

>  <CID>  (5) 
Z57110395

>  <pose_index>  (5) 
6

>  <docking_score>  (5) 
-9.323

>  <rmsd_to_best_selected>  (5) 
1.3081930573199572

>  <MWT>  (5) 
340.3619999999998

>  <TPSA>  (5) 
77.94

>  <logP>  (5) 
3.403900000000001

>  <HBD>  (5) 
1

>  <HBA>  (5) 
5

>  <SMILES>  (5) 
[H]c1c([H])c([H])c(-c2nc(N([H])c3c([H])c([H])c(C(=O)[O-])c([H])c3[H])nc3c([H])c([H])c([H])c([H])c23)c([H])c1[H]

$$$$
Z57110395_pose7
     RDKit          3D

 40 43  0  0  0  0  0  0  0  0999 V2000
   -1.0360   43.2763   52.3629 O   0  0  0  0  0  0  0  0  0  0  0  0
   -0.7595   43.5355   53.5776 C   0  0  0  0  0  0  0  0  0  0  0  0
   -1.5062   43.2938   54.5764 O   0  0  0  0  0  1  0  0  0  0  0  0
    0.5803   44.1909   53.8557 C   0  0  0  0  0  0  0  0  0  0  0  0
    1.4141   44.6104   52.8119 C   0  0  0  0  0  0  0  0  0  0  0  0
    2.6537   45.2163   53.0685 C   0  0  0  0  0  0  0  0  0  0  0  0
    3.1019   45.4213   54.3768 C   0  0  0  0  0  0  0  0  0  0  0  0
    4.3252   46.0176   54.7039 N   0  0  0  0  0  0  0  0  0  0  0  0
    5.5342   46.1819   54.0381 C   0  0  0  0  0  0  0  0  0  0  0  0
    5.6067   45.5729   52.8474 N   0  0  0  0  0  0  0  0  0  0  0  0
    6.7590   45.6863   52.1493 C   0  0  0  0  0  0  0  0  0  0  0  0
    6.7450   44.9605   50.8699 C   0  0  0  0  0  0  0  0  0  0  0  0
    7.7046   43.9715   50.6015 C   0  0  0  0  0  0  0  0  0  0  0  0
    7.6985   43.2755   49.3905 C   0  0  0  0  0  0  0  0  0  0  0  0
    6.7376   43.5652   48.4245 C   0  0  0  0  0  0  0  0  0  0  0  0
    5.7876   44.5544   48.6659 C   0  0  0  0  0  0  0  0  0  0  0  0
    5.7923   45.2494   49.8771 C   0  0  0  0  0  0  0  0  0  0  0  0
    7.8570   46.4263   52.6048 C   0  0  0  0  0  0  0  0  0  0  0  0
    9.0833   46.6230   51.9126 C   0  0  0  0  0  0  0  0  0  0  0  0
   10.1060   47.3835   52.4731 C   0  0  0  0  0  0  0  0  0  0  0  0
    9.9174   47.9568   53.7228 C   0  0  0  0  0  0  0  0  0  0  0  0
    8.7084   47.7695   54.3960 C   0  0  0  0  0  0  0  0  0  0  0  0
    7.6722   47.0175   53.8558 C   0  0  0  0  0  0  0  0  0  0  0  0
    6.5409   46.8942   54.5539 N   0  0  0  0  0  0  0  0  0  0  0  0
    2.2638   45.0000   55.4215 C   0  0  0  0  0  0  0  0  0  0  0  0
    1.0254   44.3951   55.1680 C   0  0  0  0  0  0  0  0  0  0  0  0
    1.0914   44.4622   51.7708 H   0  0  0  0  0  0  0  0  0  0  0  0
    3.2838   45.5356   52.2253 H   0  0  0  0  0  0  0  0  0  0  0  0
    4.3872   46.4377   55.6188 H   0  0  0  0  0  0  0  0  0  0  0  0
    8.4720   43.7415   51.3554 H   0  0  0  0  0  0  0  0  0  0  0  0
    8.4530   42.4982   49.1994 H   0  0  0  0  0  0  0  0  0  0  0  0
    6.7292   43.0136   47.4729 H   0  0  0  0  0  0  0  0  0  0  0  0
    5.0323   44.7886   47.9013 H   0  0  0  0  0  0  0  0  0  0  0  0
    5.0412   46.0327   50.0567 H   0  0  0  0  0  0  0  0  0  0  0  0
    9.2259   46.1684   50.9211 H   0  0  0  0  0  0  0  0  0  0  0  0
   11.0526   47.5283   51.9317 H   0  0  0  0  0  0  0  0  0  0  0  0
   10.7174   48.5565   54.1813 H   0  0  0  0  0  0  0  0  0  0  0  0
    8.5720   48.2317   55.3848 H   0  0  0  0  0  0  0  0  0  0  0  0
    2.5866   45.1480   56.4626 H   0  0  0  0  0  0  0  0  0  0  0  0
    0.3945   44.0765   56.0109 H   0  0  0  0  0  0  0  0  0  0  0  0
  1  2  2  0
  2  3  1  0
  2  4  1  0
  4  5  2  0
  5  6  1  0
  6  7  2  0
  7  8  1  0
  8  9  1  0
  9 10  2  0
 10 11  1  0
 11 12  1  0
 12 13  2  0
 13 14  1  0
 14 15  2  0
 15 16  1  0
 16 17  2  0
 11 18  2  0
 18 19  1  0
 19 20  2  0
 20 21  1  0
 21 22  2  0
 22 23  1  0
 23 24  2  0
  7 25  1  0
 25 26  2  0
 26  4  1  0
 24  9  1  0
 17 12  1  0
 23 18  1  0
  5 27  1  0
  6 28  1  0
  8 29  1  0
 13 30  1  0
 14 31  1  0
 15 32  1  0
 16 33  1  0
 17 34  1  0
 19 35  1  0
 20 36  1  0
 21 37  1  0
 22 38  1  0
 25 39  1  0
 26 40  1  0
M  CHG  1   3  -1
M  END
>  <meeko>  (6) 
{"is_sidechain": false}

>  <CID>  (6) 
Z57110395

>  <pose_index>  (6) 
7

>  <docking_score>  (6) 
-9.283

>  <rmsd_to_best_selected>  (6) 
1.2319351406534558

>  <MWT>  (6) 
340.3619999999998

>  <TPSA>  (6) 
77.94

>  <logP>  (6) 
3.403900000000001

>  <HBD>  (6) 
1

>  <HBA>  (6) 
5

>  <SMILES>  (6) 
[H]c1c([H])c([H])c(-c2nc(N([H])c3c([H])c([H])c(C(=O)[O-])c([H])c3[H])nc3c([H])c([H])c([H])c([H])c23)c([H])c1[H]

$$$$
Z57110395_pose10
     RDKit          3D

 40 43  0  0  0  0  0  0  0  0999 V2000
   -2.0576   45.0249   54.1644 O   0  0  0  0  0  0  0  0  0  0  0  0
   -1.1794   45.7129   54.7767 C   0  0  0  0  0  0  0  0  0  0  0  0
   -1.4115   46.7032   55.5384 O   0  0  0  0  0  1  0  0  0  0  0  0
    0.2711   45.3149   54.5783 C   0  0  0  0  0  0  0  0  0  0  0  0
    0.6980   44.6886   53.4000 C   0  0  0  0  0  0  0  0  0  0  0  0
    2.0392   44.3200   53.2167 C   0  0  0  0  0  0  0  0  0  0  0  0
    2.9988   44.5639   54.2027 C   0  0  0  0  0  0  0  0  0  0  0  0
    4.3512   44.2230   54.0854 N   0  0  0  0  0  0  0  0  0  0  0  0
    5.4799   44.8760   53.6037 C   0  0  0  0  0  0  0  0  0  0  0  0
    5.8246   44.5531   52.3520 N   0  0  0  0  0  0  0  0  0  0  0  0
    6.9178   45.1470   51.8238 C   0  0  0  0  0  0  0  0  0  0  0  0
    7.2252   44.7035   50.4554 C   0  0  0  0  0  0  0  0  0  0  0  0
    8.5097   44.2382   50.1285 C   0  0  0  0  0  0  0  0  0  0  0  0
    8.8115   43.8129   48.8327 C   0  0  0  0  0  0  0  0  0  0  0  0
    7.8349   43.8572   47.8407 C   0  0  0  0  0  0  0  0  0  0  0  0
    6.5599   44.3311   48.1405 C   0  0  0  0  0  0  0  0  0  0  0  0
    6.2578   44.7551   49.4366 C   0  0  0  0  0  0  0  0  0  0  0  0
    7.6812   46.0947   52.5185 C   0  0  0  0  0  0  0  0  0  0  0  0
    8.8165   46.7891   52.0180 C   0  0  0  0  0  0  0  0  0  0  0  0
    9.4949   47.7108   52.8099 C   0  0  0  0  0  0  0  0  0  0  0  0
    9.0485   47.9550   54.1010 C   0  0  0  0  0  0  0  0  0  0  0  0
    7.9263   47.2783   54.5860 C   0  0  0  0  0  0  0  0  0  0  0  0
    7.2322   46.3542   53.8140 C   0  0  0  0  0  0  0  0  0  0  0  0
    6.1621   45.7583   54.3423 N   0  0  0  0  0  0  0  0  0  0  0  0
    2.5682   45.1931   55.3829 C   0  0  0  0  0  0  0  0  0  0  0  0
    1.2300   45.5624   55.5684 C   0  0  0  0  0  0  0  0  0  0  0  0
   -0.0322   44.4819   52.6037 H   0  0  0  0  0  0  0  0  0  0  0  0
    2.3410   43.8298   52.2793 H   0  0  0  0  0  0  0  0  0  0  0  0
    4.6103   43.3058   54.4157 H   0  0  0  0  0  0  0  0  0  0  0  0
    9.2891   44.2084   50.9042 H   0  0  0  0  0  0  0  0  0  0  0  0
    9.8200   43.4431   48.5959 H   0  0  0  0  0  0  0  0  0  0  0  0
    8.0705   43.5182   46.8210 H   0  0  0  0  0  0  0  0  0  0  0  0
    5.7901   44.3714   47.3557 H   0  0  0  0  0  0  0  0  0  0  0  0
    5.2503   45.1340   49.6631 H   0  0  0  0  0  0  0  0  0  0  0  0
    9.1630   46.5953   50.9921 H   0  0  0  0  0  0  0  0  0  0  0  0
   10.3755   48.2400   52.4167 H   0  0  0  0  0  0  0  0  0  0  0  0
    9.5760   48.6784   54.7401 H   0  0  0  0  0  0  0  0  0  0  0  0
    7.5816   47.4833   55.6103 H   0  0  0  0  0  0  0  0  0  0  0  0
    3.2985   45.4003   56.1790 H   0  0  0  0  0  0  0  0  0  0  0  0
    0.9279   46.0537   56.5051 H   0  0  0  0  0  0  0  0  0  0  0  0
  1  2  2  0
  2  3  1  0
  2  4  1  0
  4  5  2  0
  5  6  1  0
  6  7  2  0
  7  8  1  0
  8  9  1  0
  9 10  2  0
 10 11  1  0
 11 12  1  0
 12 13  2  0
 13 14  1  0
 14 15  2  0
 15 16  1  0
 16 17  2  0
 11 18  2  0
 18 19  1  0
 19 20  2  0
 20 21  1  0
 21 22  2  0
 22 23  1  0
 23 24  2  0
  7 25  1  0
 25 26  2  0
 26  4  1  0
 24  9  1  0
 17 12  1  0
 23 18  1  0
  5 27  1  0
  6 28  1  0
  8 29  1  0
 13 30  1  0
 14 31  1  0
 15 32  1  0
 16 33  1  0
 17 34  1  0
 19 35  1  0
 20 36  1  0
 21 37  1  0
 22 38  1  0
 25 39  1  0
 26 40  1  0
M  CHG  1   3  -1
M  END
>  <meeko>  (7) 
{"is_sidechain": false}

>  <CID>  (7) 
Z57110395

>  <pose_index>  (7) 
10

>  <docking_score>  (7) 
-8.983

>  <rmsd_to_best_selected>  (7) 
1.7934060982056708

>  <MWT>  (7) 
340.3619999999998

>  <TPSA>  (7) 
77.94

>  <logP>  (7) 
3.403900000000001

>  <HBD>  (7) 
1

>  <HBA>  (7) 
5

>  <SMILES>  (7) 
[H]c1c([H])c([H])c(-c2nc(N([H])c3c([H])c([H])c(C(=O)[O-])c([H])c3[H])nc3c([H])c([H])c([H])c([H])c23)c([H])c1[H]

$$$$
