Z57346758_pose3
     RDKit          3D

 41 43  0  0  0  0  0  0  0  0999 V2000
   11.6162   49.3867   54.1501 C   0  0  0  0  0  0  0  0  0  0  0  0
   11.6952   48.0643   53.6343 O   0  0  0  0  0  0  0  0  0  0  0  0
   10.6040   47.2641   53.8271 C   0  0  0  0  0  0  0  0  0  0  0  0
    9.8742   47.1354   55.0057 C   0  0  0  0  0  0  0  0  0  0  0  0
    8.7686   46.2734   55.0653 C   0  0  0  0  0  0  0  0  0  0  0  0
    8.3686   45.5201   53.9581 C   0  0  0  0  0  0  0  0  0  0  0  0
    7.2701   44.6559   53.9542 N   0  0  0  0  0  0  0  0  0  0  0  0
    6.4168   44.1729   52.9637 C   0  0  0  0  0  0  0  0  0  0  0  0
    5.1776   44.6820   53.0001 N   0  0  0  0  0  0  0  0  0  0  0  0
    4.2888   44.2680   52.0794 C   0  0  0  0  0  0  0  0  0  0  0  0
    2.9809   44.7981   52.1077 N   0  0  0  0  0  0  0  0  0  0  0  0
    2.3316   44.8662   53.4220 C   0  0  0  0  0  0  0  0  0  0  0  0
    1.4692   43.6256   53.6789 C   0  0  0  0  0  0  0  0  0  0  0  0
    1.4677   43.3227   55.0774 O   0  0  0  0  0  0  0  0  0  0  0  0
    4.6368   43.3540   51.0726 C   0  0  0  0  0  0  0  0  0  0  0  0
    3.7757   42.9046   50.0371 C   0  0  0  0  0  0  0  0  0  0  0  0
    4.2176   41.9848   49.0888 C   0  0  0  0  0  0  0  0  0  0  0  0
    5.5177   41.5053   49.1618 C   0  0  0  0  0  0  0  0  0  0  0  0
    6.3665   41.9581   50.1761 C   0  0  0  0  0  0  0  0  0  0  0  0
    5.9486   42.8780   51.1306 C   0  0  0  0  0  0  0  0  0  0  0  0
    6.8189   43.2717   52.0622 N   0  0  0  0  0  0  0  0  0  0  0  0
    9.1102   45.6661   52.7767 C   0  0  0  0  0  0  0  0  0  0  0  0
   10.2143   46.5254   52.7118 C   0  0  0  0  0  0  0  0  0  0  0  0
   12.1141   50.0809   53.4571 H   0  0  0  0  0  0  0  0  0  0  0  0
   10.5604   49.6744   54.2617 H   0  0  0  0  0  0  0  0  0  0  0  0
   12.1131   49.4282   55.1306 H   0  0  0  0  0  0  0  0  0  0  0  0
   10.1660   47.7129   55.8953 H   0  0  0  0  0  0  0  0  0  0  0  0
    8.2036   46.1886   56.0053 H   0  0  0  0  0  0  0  0  0  0  0  0
    6.9401   44.3314   54.8494 H   0  0  0  0  0  0  0  0  0  0  0  0
    2.3896   44.2447   51.4864 H   0  0  0  0  0  0  0  0  0  0  0  0
    3.1051   44.9332   54.2013 H   0  0  0  0  0  0  0  0  0  0  0  0
    1.6813   45.7531   53.4438 H   0  0  0  0  0  0  0  0  0  0  0  0
    0.4392   43.8205   53.3456 H   0  0  0  0  0  0  0  0  0  0  0  0
    1.8818   42.7722   53.1210 H   0  0  0  0  0  0  0  0  0  0  0  0
    2.3378   42.9334   55.2775 H   0  0  0  0  0  0  0  0  0  0  0  0
    2.7460   43.2878   49.9829 H   0  0  0  0  0  0  0  0  0  0  0  0
    3.5430   41.6421   48.2904 H   0  0  0  0  0  0  0  0  0  0  0  0
    5.8786   40.7724   48.4251 H   0  0  0  0  0  0  0  0  0  0  0  0
    7.3966   41.5747   50.2201 H   0  0  0  0  0  0  0  0  0  0  0  0
    8.8190   45.0943   51.8833 H   0  0  0  0  0  0  0  0  0  0  0  0
   10.7788   46.6179   51.7722 H   0  0  0  0  0  0  0  0  0  0  0  0
  1  2  1  0
  2  3  1  0
  3  4  2  0
  4  5  1  0
  5  6  2  0
  6  7  1  0
  7  8  1  0
  8  9  2  0
  9 10  1  0
 10 11  1  0
 11 12  1  0
 12 13  1  0
 13 14  1  0
 10 15  2  0
 15 16  1  0
 16 17  2  0
 17 18  1  0
 18 19  2  0
 19 20  1  0
 20 21  2  0
  6 22  1  0
 22 23  2  0
 23  3  1  0
 21  8  1  0
 20 15  1  0
  1 24  1  0
  1 25  1  0
  1 26  1  0
  4 27  1  0
  5 28  1  0
  7 29  1  0
 11 30  1  0
 12 31  1  0
 12 32  1  0
 13 33  1  0
 13 34  1  0
 14 35  1  0
 16 36  1  0
 17 37  1  0
 18 38  1  0
 19 39  1  0
 22 40  1  0
 23 41  1  0
M  END
>  <meeko>  (1) 
{"is_sidechain": false}

>  <CID>  (1) 
Z57346758

>  <pose_index>  (1) 
3

>  <docking_score>  (1) 
-8.199

>  <rmsd_to_best_selected>  (1) 
1.9777018003362237

>  <MWT>  (1) 
310.3569999999997

>  <TPSA>  (1) 
79.3

>  <logP>  (1) 
2.786200000000001

>  <HBD>  (1) 
3

>  <HBA>  (1) 
6

>  <SMILES>  (1) 
[H]OC([H])([H])C([H])([H])N([H])c1nc(N([H])c2c([H])c([H])c(OC([H])([H])[H])c([H])c2[H])nc2c([H])c([H])c([H])c([H])c12

$$$$
Z57346758_pose2
     RDKit          3D

 41 43  0  0  0  0  0  0  0  0999 V2000
   11.7827   48.2038   55.5846 C   0  0  0  0  0  0  0  0  0  0  0  0
   10.4910   47.6897   55.8842 O   0  0  0  0  0  0  0  0  0  0  0  0
    9.6875   47.3880   54.8205 C   0  0  0  0  0  0  0  0  0  0  0  0
    8.6164   48.1462   54.3547 C   0  0  0  0  0  0  0  0  0  0  0  0
    7.8729   47.7179   53.2450 C   0  0  0  0  0  0  0  0  0  0  0  0
    8.1749   46.5271   52.5779 C   0  0  0  0  0  0  0  0  0  0  0  0
    7.4796   46.0554   51.4618 N   0  0  0  0  0  0  0  0  0  0  0  0
    6.5456   45.0429   51.2552 C   0  0  0  0  0  0  0  0  0  0  0  0
    5.4268   45.1598   51.9835 N   0  0  0  0  0  0  0  0  0  0  0  0
    4.4733   44.2214   51.8458 C   0  0  0  0  0  0  0  0  0  0  0  0
    3.2892   44.3351   52.6066 N   0  0  0  0  0  0  0  0  0  0  0  0
    3.4546   44.4171   54.0624 C   0  0  0  0  0  0  0  0  0  0  0  0
    2.3095   43.7056   54.7911 C   0  0  0  0  0  0  0  0  0  0  0  0
    1.3926   43.1656   53.8334 O   0  0  0  0  0  0  0  0  0  0  0  0
    4.6069   43.1564   50.9407 C   0  0  0  0  0  0  0  0  0  0  0  0
    3.6301   42.1555   50.6998 C   0  0  0  0  0  0  0  0  0  0  0  0
    3.8648   41.1307   49.7855 C   0  0  0  0  0  0  0  0  0  0  0  0
    5.0726   41.0955   49.1030 C   0  0  0  0  0  0  0  0  0  0  0  0
    6.0280   42.0881   49.3345 C   0  0  0  0  0  0  0  0  0  0  0  0
    5.8136   43.1215   50.2398 C   0  0  0  0  0  0  0  0  0  0  0  0
    6.7680   44.0408   50.3991 N   0  0  0  0  0  0  0  0  0  0  0  0
    9.2615   45.7779   53.0563 C   0  0  0  0  0  0  0  0  0  0  0  0
   10.0067   46.2019   54.1622 C   0  0  0  0  0  0  0  0  0  0  0  0
   12.5052   47.3756   55.5380 H   0  0  0  0  0  0  0  0  0  0  0  0
   11.7553   48.7215   54.6144 H   0  0  0  0  0  0  0  0  0  0  0  0
   12.0867   48.9118   56.3696 H   0  0  0  0  0  0  0  0  0  0  0  0
    8.3516   49.0867   54.8600 H   0  0  0  0  0  0  0  0  0  0  0  0
    7.0326   48.3335   52.8914 H   0  0  0  0  0  0  0  0  0  0  0  0
    7.7168   46.4615   50.5697 H   0  0  0  0  0  0  0  0  0  0  0  0
    2.6865   43.5374   52.3968 H   0  0  0  0  0  0  0  0  0  0  0  0
    4.4072   43.9438   54.3426 H   0  0  0  0  0  0  0  0  0  0  0  0
    3.4479   45.4776   54.3546 H   0  0  0  0  0  0  0  0  0  0  0  0
    2.7178   42.8906   55.4068 H   0  0  0  0  0  0  0  0  0  0  0  0
    1.7831   44.4255   55.4350 H   0  0  0  0  0  0  0  0  0  0  0  0
    1.0735   43.9159   53.3018 H   0  0  0  0  0  0  0  0  0  0  0  0
    2.6740   42.1893   51.2426 H   0  0  0  0  0  0  0  0  0  0  0  0
    3.1018   40.3587   49.6068 H   0  0  0  0  0  0  0  0  0  0  0  0
    5.2769   40.2895   48.3828 H   0  0  0  0  0  0  0  0  0  0  0  0
    6.9794   42.0510   48.7837 H   0  0  0  0  0  0  0  0  0  0  0  0
    9.5325   44.8388   52.5517 H   0  0  0  0  0  0  0  0  0  0  0  0
   10.8523   45.5933   54.5151 H   0  0  0  0  0  0  0  0  0  0  0  0
  1  2  1  0
  2  3  1  0
  3  4  2  0
  4  5  1  0
  5  6  2  0
  6  7  1  0
  7  8  1  0
  8  9  2  0
  9 10  1  0
 10 11  1  0
 11 12  1  0
 12 13  1  0
 13 14  1  0
 10 15  2  0
 15 16  1  0
 16 17  2  0
 17 18  1  0
 18 19  2  0
 19 20  1  0
 20 21  2  0
  6 22  1  0
 22 23  2  0
 23  3  1  0
 21  8  1  0
 20 15  1  0
  1 24  1  0
  1 25  1  0
  1 26  1  0
  4 27  1  0
  5 28  1  0
  7 29  1  0
 11 30  1  0
 12 31  1  0
 12 32  1  0
 13 33  1  0
 13 34  1  0
 14 35  1  0
 16 36  1  0
 17 37  1  0
 18 38  1  0
 19 39  1  0
 22 40  1  0
 23 41  1  0
M  END
>  <meeko>  (2) 
{"is_sidechain": false}

>  <CID>  (2) 
Z57346758

>  <pose_index>  (2) 
2

>  <docking_score>  (2) 
-8.611

>  <rmsd_to_best_selected>  (2) 
0.0

>  <MWT>  (2) 
310.3569999999997

>  <TPSA>  (2) 
79.3

>  <logP>  (2) 
2.786200000000001

>  <HBD>  (2) 
3

>  <HBA>  (2) 
6

>  <SMILES>  (2) 
[H]OC([H])([H])C([H])([H])N([H])c1nc(N([H])c2c([H])c([H])c(OC([H])([H])[H])c([H])c2[H])nc2c([H])c([H])c([H])c([H])c12

$$$$
Z57346758_pose4
     RDKit          3D

 41 43  0  0  0  0  0  0  0  0999 V2000
   12.4063   48.0763   54.0936 C   0  0  0  0  0  0  0  0  0  0  0  0
   11.1322   48.6506   53.8311 O   0  0  0  0  0  0  0  0  0  0  0  0
   10.0550   47.8107   53.8889 C   0  0  0  0  0  0  0  0  0  0  0  0
    8.7377   48.1768   54.1501 C   0  0  0  0  0  0  0  0  0  0  0  0
    7.7249   47.2073   54.1790 C   0  0  0  0  0  0  0  0  0  0  0  0
    8.0001   45.8560   53.9525 C   0  0  0  0  0  0  0  0  0  0  0  0
    7.0319   44.8469   53.9556 N   0  0  0  0  0  0  0  0  0  0  0  0
    6.2876   44.2106   52.9656 C   0  0  0  0  0  0  0  0  0  0  0  0
    5.1190   43.7064   53.3835 N   0  0  0  0  0  0  0  0  0  0  0  0
    4.3387   43.0735   52.4894 C   0  0  0  0  0  0  0  0  0  0  0  0
    3.1040   42.5405   52.9185 N   0  0  0  0  0  0  0  0  0  0  0  0
    1.9763   43.4775   52.9874 C   0  0  0  0  0  0  0  0  0  0  0  0
    1.7627   43.9835   54.4188 C   0  0  0  0  0  0  0  0  0  0  0  0
    2.6592   45.0682   54.6827 O   0  0  0  0  0  0  0  0  0  0  0  0
    4.7015   42.9626   51.1369 C   0  0  0  0  0  0  0  0  0  0  0  0
    3.9148   42.3556   50.1235 C   0  0  0  0  0  0  0  0  0  0  0  0
    4.3710   42.2871   48.8086 C   0  0  0  0  0  0  0  0  0  0  0  0
    5.6121   42.8223   48.4935 C   0  0  0  0  0  0  0  0  0  0  0  0
    6.3791   43.4284   49.4919 C   0  0  0  0  0  0  0  0  0  0  0  0
    5.9414   43.5119   50.8090 C   0  0  0  0  0  0  0  0  0  0  0  0
    6.7247   44.1161   51.7049 N   0  0  0  0  0  0  0  0  0  0  0  0
    9.3315   45.5040   53.6846 C   0  0  0  0  0  0  0  0  0  0  0  0
   10.3455   46.4688   53.6542 C   0  0  0  0  0  0  0  0  0  0  0  0
   12.9406   48.6917   54.8325 H   0  0  0  0  0  0  0  0  0  0  0  0
   12.2751   47.0587   54.4901 H   0  0  0  0  0  0  0  0  0  0  0  0
   12.9887   48.0344   53.1614 H   0  0  0  0  0  0  0  0  0  0  0  0
    8.4898   49.2325   54.3348 H   0  0  0  0  0  0  0  0  0  0  0  0
    6.6898   47.5177   54.3847 H   0  0  0  0  0  0  0  0  0  0  0  0
    6.7186   44.5168   54.8561 H   0  0  0  0  0  0  0  0  0  0  0  0
    3.2298   42.1222   53.8420 H   0  0  0  0  0  0  0  0  0  0  0  0
    2.1820   44.3355   52.3305 H   0  0  0  0  0  0  0  0  0  0  0  0
    1.0659   42.9513   52.6644 H   0  0  0  0  0  0  0  0  0  0  0  0
    0.7250   44.3297   54.5339 H   0  0  0  0  0  0  0  0  0  0  0  0
    1.9586   43.1662   55.1286 H   0  0  0  0  0  0  0  0  0  0  0  0
    2.1082   45.8633   54.7913 H   0  0  0  0  0  0  0  0  0  0  0  0
    2.9317   41.9336   50.3794 H   0  0  0  0  0  0  0  0  0  0  0  0
    3.7547   41.8144   48.0297 H   0  0  0  0  0  0  0  0  0  0  0  0
    5.9904   42.7695   47.4619 H   0  0  0  0  0  0  0  0  0  0  0  0
    7.3592   43.8524   49.2278 H   0  0  0  0  0  0  0  0  0  0  0  0
    9.5834   44.4501   53.4950 H   0  0  0  0  0  0  0  0  0  0  0  0
   11.3812   46.1643   53.4429 H   0  0  0  0  0  0  0  0  0  0  0  0
  1  2  1  0
  2  3  1  0
  3  4  2  0
  4  5  1  0
  5  6  2  0
  6  7  1  0
  7  8  1  0
  8  9  2  0
  9 10  1  0
 10 11  1  0
 11 12  1  0
 12 13  1  0
 13 14  1  0
 10 15  2  0
 15 16  1  0
 16 17  2  0
 17 18  1  0
 18 19  2  0
 19 20  1  0
 20 21  2  0
  6 22  1  0
 22 23  2  0
 23  3  1  0
 21  8  1  0
 20 15  1  0
  1 24  1  0
  1 25  1  0
  1 26  1  0
  4 27  1  0
  5 28  1  0
  7 29  1  0
 11 30  1  0
 12 31  1  0
 12 32  1  0
 13 33  1  0
 13 34  1  0
 14 35  1  0
 16 36  1  0
 17 37  1  0
 18 38  1  0
 19 39  1  0
 22 40  1  0
 23 41  1  0
M  END
>  <meeko>  (3) 
{"is_sidechain": false}

>  <CID>  (3) 
Z57346758

>  <pose_index>  (3) 
4

>  <docking_score>  (3) 
-7.937

>  <rmsd_to_best_selected>  (3) 
1.8680128773052607

>  <MWT>  (3) 
310.3569999999997

>  <TPSA>  (3) 
79.3

>  <logP>  (3) 
2.786200000000001

>  <HBD>  (3) 
3

>  <HBA>  (3) 
6

>  <SMILES>  (3) 
[H]OC([H])([H])C([H])([H])N([H])c1nc(N([H])c2c([H])c([H])c(OC([H])([H])[H])c([H])c2[H])nc2c([H])c([H])c([H])c([H])c12

$$$$
Z57346758_pose5
     RDKit          3D

 41 43  0  0  0  0  0  0  0  0999 V2000
   11.5267   48.9058   53.3303 C   0  0  0  0  0  0  0  0  0  0  0  0
   10.9282   48.5530   54.5707 O   0  0  0  0  0  0  0  0  0  0  0  0
   10.0558   47.5010   54.5550 C   0  0  0  0  0  0  0  0  0  0  0  0
    9.3232   47.0220   55.6384 C   0  0  0  0  0  0  0  0  0  0  0  0
    8.4579   45.9296   55.4814 C   0  0  0  0  0  0  0  0  0  0  0  0
    8.3055   45.2883   54.2484 C   0  0  0  0  0  0  0  0  0  0  0  0
    7.4506   44.2044   54.0291 N   0  0  0  0  0  0  0  0  0  0  0  0
    6.6003   43.8328   52.9901 C   0  0  0  0  0  0  0  0  0  0  0  0
    5.3253   44.2159   53.1506 N   0  0  0  0  0  0  0  0  0  0  0  0
    4.4368   43.8953   52.1938 C   0  0  0  0  0  0  0  0  0  0  0  0
    3.0914   44.2948   52.3511 N   0  0  0  0  0  0  0  0  0  0  0  0
    2.7622   45.0020   53.5940 C   0  0  0  0  0  0  0  0  0  0  0  0
    1.5481   44.3700   54.2859 C   0  0  0  0  0  0  0  0  0  0  0  0
    0.4732   44.2434   53.3482 O   0  0  0  0  0  0  0  0  0  0  0  0
    4.8171   43.2102   51.0286 C   0  0  0  0  0  0  0  0  0  0  0  0
    3.9526   42.8788   49.9520 C   0  0  0  0  0  0  0  0  0  0  0  0
    4.4289   42.1850   48.8414 C   0  0  0  0  0  0  0  0  0  0  0  0
    5.7664   41.8173   48.7918 C   0  0  0  0  0  0  0  0  0  0  0  0
    6.6154   42.1543   49.8494 C   0  0  0  0  0  0  0  0  0  0  0  0
    6.1637   42.8496   50.9660 C   0  0  0  0  0  0  0  0  0  0  0  0
    7.0368   43.1467   51.9304 N   0  0  0  0  0  0  0  0  0  0  0  0
    9.0465   45.7865   53.1667 C   0  0  0  0  0  0  0  0  0  0  0  0
    9.9109   46.8778   53.3181 C   0  0  0  0  0  0  0  0  0  0  0  0
   11.2338   49.9311   53.0603 H   0  0  0  0  0  0  0  0  0  0  0  0
   12.6214   48.8494   53.4222 H   0  0  0  0  0  0  0  0  0  0  0  0
   11.1880   48.2098   52.5487 H   0  0  0  0  0  0  0  0  0  0  0  0
    9.4238   47.5032   56.6224 H   0  0  0  0  0  0  0  0  0  0  0  0
    7.8857   45.5687   56.3488 H   0  0  0  0  0  0  0  0  0  0  0  0
    7.3386   43.5499   54.7865 H   0  0  0  0  0  0  0  0  0  0  0  0
    2.4936   43.4693   52.2834 H   0  0  0  0  0  0  0  0  0  0  0  0
    3.6265   44.9558   54.2729 H   0  0  0  0  0  0  0  0  0  0  0  0
    2.5186   46.0459   53.3472 H   0  0  0  0  0  0  0  0  0  0  0  0
    1.8208   43.3748   54.6669 H   0  0  0  0  0  0  0  0  0  0  0  0
    1.2301   45.0099   55.1222 H   0  0  0  0  0  0  0  0  0  0  0  0
    0.7227   43.5284   52.7359 H   0  0  0  0  0  0  0  0  0  0  0  0
    2.8937   43.1735   49.9953 H   0  0  0  0  0  0  0  0  0  0  0  0
    3.7519   41.9312   48.0124 H   0  0  0  0  0  0  0  0  0  0  0  0
    6.1560   41.2637   47.9248 H   0  0  0  0  0  0  0  0  0  0  0  0
    7.6741   41.8603   49.7972 H   0  0  0  0  0  0  0  0  0  0  0  0
    8.9465   45.3107   52.1799 H   0  0  0  0  0  0  0  0  0  0  0  0
   10.4807   47.2460   52.4522 H   0  0  0  0  0  0  0  0  0  0  0  0
  1  2  1  0
  2  3  1  0
  3  4  2  0
  4  5  1  0
  5  6  2  0
  6  7  1  0
  7  8  1  0
  8  9  2  0
  9 10  1  0
 10 11  1  0
 11 12  1  0
 12 13  1  0
 13 14  1  0
 10 15  2  0
 15 16  1  0
 16 17  2  0
 17 18  1  0
 18 19  2  0
 19 20  1  0
 20 21  2  0
  6 22  1  0
 22 23  2  0
 23  3  1  0
 21  8  1  0
 20 15  1  0
  1 24  1  0
  1 25  1  0
  1 26  1  0
  4 27  1  0
  5 28  1  0
  7 29  1  0
 11 30  1  0
 12 31  1  0
 12 32  1  0
 13 33  1  0
 13 34  1  0
 14 35  1  0
 16 36  1  0
 17 37  1  0
 18 38  1  0
 19 39  1  0
 22 40  1  0
 23 41  1  0
M  END
>  <meeko>  (4) 
{"is_sidechain": false}

>  <CID>  (4) 
Z57346758

>  <pose_index>  (4) 
5

>  <docking_score>  (4) 
-7.922

>  <rmsd_to_best_selected>  (4) 
1.9777514845085897

>  <MWT>  (4) 
310.3569999999997

>  <TPSA>  (4) 
79.3

>  <logP>  (4) 
2.786200000000001

>  <HBD>  (4) 
3

>  <HBA>  (4) 
6

>  <SMILES>  (4) 
[H]OC([H])([H])C([H])([H])N([H])c1nc(N([H])c2c([H])c([H])c(OC([H])([H])[H])c([H])c2[H])nc2c([H])c([H])c([H])c([H])c12

$$$$
Z57346758_pose6
     RDKit          3D

 41 43  0  0  0  0  0  0  0  0999 V2000
   11.1402   49.1393   55.0823 C   0  0  0  0  0  0  0  0  0  0  0  0
    9.8310   49.1497   54.5288 O   0  0  0  0  0  0  0  0  0  0  0  0
    9.3134   47.9421   54.1502 C   0  0  0  0  0  0  0  0  0  0  0  0
    7.9951   47.5233   54.3111 C   0  0  0  0  0  0  0  0  0  0  0  0
    7.5972   46.2514   53.8740 C   0  0  0  0  0  0  0  0  0  0  0  0
    8.4988   45.3687   53.2742 C   0  0  0  0  0  0  0  0  0  0  0  0
    8.1583   44.0954   52.8084 N   0  0  0  0  0  0  0  0  0  0  0  0
    7.0082   43.5405   52.2527 C   0  0  0  0  0  0  0  0  0  0  0  0
    5.9327   43.5721   53.0509 N   0  0  0  0  0  0  0  0  0  0  0  0
    4.7788   43.0539   52.5934 C   0  0  0  0  0  0  0  0  0  0  0  0
    3.6391   43.0835   53.4254 N   0  0  0  0  0  0  0  0  0  0  0  0
    3.3957   44.3338   54.1534 C   0  0  0  0  0  0  0  0  0  0  0  0
    2.4237   45.2407   53.3886 C   0  0  0  0  0  0  0  0  0  0  0  0
    2.9208   46.5832   53.3855 O   0  0  0  0  0  0  0  0  0  0  0  0
    4.6694   42.5211   51.2985 C   0  0  0  0  0  0  0  0  0  0  0  0
    3.4814   42.0010   50.7222 C   0  0  0  0  0  0  0  0  0  0  0  0
    3.4809   41.4833   49.4282 C   0  0  0  0  0  0  0  0  0  0  0  0
    4.6606   41.4798   48.6984 C   0  0  0  0  0  0  0  0  0  0  0  0
    5.8270   42.0012   49.2655 C   0  0  0  0  0  0  0  0  0  0  0  0
    5.8497   42.5263   50.5527 C   0  0  0  0  0  0  0  0  0  0  0  0
    6.9978   43.0178   51.0223 N   0  0  0  0  0  0  0  0  0  0  0  0
    9.8214   45.8084   53.1135 C   0  0  0  0  0  0  0  0  0  0  0  0
   10.2241   47.0773   53.5477 C   0  0  0  0  0  0  0  0  0  0  0  0
   11.4992   50.1731   55.1940 H   0  0  0  0  0  0  0  0  0  0  0  0
   11.1180   48.6504   56.0673 H   0  0  0  0  0  0  0  0  0  0  0  0
   11.8166   48.5866   54.4137 H   0  0  0  0  0  0  0  0  0  0  0  0
    7.2619   48.1936   54.7835 H   0  0  0  0  0  0  0  0  0  0  0  0
    6.5502   45.9414   54.0067 H   0  0  0  0  0  0  0  0  0  0  0  0
    8.8385   43.3642   52.9388 H   0  0  0  0  0  0  0  0  0  0  0  0
    3.7092   42.3244   54.1048 H   0  0  0  0  0  0  0  0  0  0  0  0
    2.9666   44.0977   55.1384 H   0  0  0  0  0  0  0  0  0  0  0  0
    4.3529   44.8642   54.2645 H   0  0  0  0  0  0  0  0  0  0  0  0
    2.3279   44.8834   52.3527 H   0  0  0  0  0  0  0  0  0  0  0  0
    1.4393   45.2168   53.8789 H   0  0  0  0  0  0  0  0  0  0  0  0
    2.1424   47.1663   53.4220 H   0  0  0  0  0  0  0  0  0  0  0  0
    2.5483   42.0066   51.3046 H   0  0  0  0  0  0  0  0  0  0  0  0
    2.5551   41.0817   48.9904 H   0  0  0  0  0  0  0  0  0  0  0  0
    4.6782   41.0687   47.6783 H   0  0  0  0  0  0  0  0  0  0  0  0
    6.7553   41.9960   48.6753 H   0  0  0  0  0  0  0  0  0  0  0  0
   10.5565   45.1432   52.6370 H   0  0  0  0  0  0  0  0  0  0  0  0
   11.2687   47.3939   53.4118 H   0  0  0  0  0  0  0  0  0  0  0  0
  1  2  1  0
  2  3  1  0
  3  4  2  0
  4  5  1  0
  5  6  2  0
  6  7  1  0
  7  8  1  0
  8  9  2  0
  9 10  1  0
 10 11  1  0
 11 12  1  0
 12 13  1  0
 13 14  1  0
 10 15  2  0
 15 16  1  0
 16 17  2  0
 17 18  1  0
 18 19  2  0
 19 20  1  0
 20 21  2  0
  6 22  1  0
 22 23  2  0
 23  3  1  0
 21  8  1  0
 20 15  1  0
  1 24  1  0
  1 25  1  0
  1 26  1  0
  4 27  1  0
  5 28  1  0
  7 29  1  0
 11 30  1  0
 12 31  1  0
 12 32  1  0
 13 33  1  0
 13 34  1  0
 14 35  1  0
 16 36  1  0
 17 37  1  0
 18 38  1  0
 19 39  1  0
 22 40  1  0
 23 41  1  0
M  END
>  <meeko>  (5) 
{"is_sidechain": false}

>  <CID>  (5) 
Z57346758

>  <pose_index>  (5) 
6

>  <docking_score>  (5) 
-7.842

>  <rmsd_to_best_selected>  (5) 
1.7499713235716718

>  <MWT>  (5) 
310.3569999999997

>  <TPSA>  (5) 
79.3

>  <logP>  (5) 
2.786200000000001

>  <HBD>  (5) 
3

>  <HBA>  (5) 
6

>  <SMILES>  (5) 
[H]OC([H])([H])C([H])([H])N([H])c1nc(N([H])c2c([H])c([H])c(OC([H])([H])[H])c([H])c2[H])nc2c([H])c([H])c([H])c([H])c12

$$$$
Z57346758_pose7
     RDKit          3D

 41 43  0  0  0  0  0  0  0  0999 V2000
   12.2855   48.3957   53.3992 C   0  0  0  0  0  0  0  0  0  0  0  0
   11.0876   48.7169   54.0939 O   0  0  0  0  0  0  0  0  0  0  0  0
   10.0593   47.8221   53.9931 C   0  0  0  0  0  0  0  0  0  0  0  0
   10.1652   46.4856   53.6187 C   0  0  0  0  0  0  0  0  0  0  0  0
    9.0226   45.6733   53.5578 C   0  0  0  0  0  0  0  0  0  0  0  0
    7.7541   46.1735   53.8630 C   0  0  0  0  0  0  0  0  0  0  0  0
    6.5827   45.4107   53.8320 N   0  0  0  0  0  0  0  0  0  0  0  0
    6.0031   44.5568   52.8954 C   0  0  0  0  0  0  0  0  0  0  0  0
    4.6854   44.3730   53.0501 N   0  0  0  0  0  0  0  0  0  0  0  0
    4.0463   43.5617   52.1894 C   0  0  0  0  0  0  0  0  0  0  0  0
    2.6574   43.3617   52.3409 N   0  0  0  0  0  0  0  0  0  0  0  0
    2.1822   43.0974   53.7041 C   0  0  0  0  0  0  0  0  0  0  0  0
    1.6223   44.3698   54.3525 C   0  0  0  0  0  0  0  0  0  0  0  0
    2.5851   44.9056   55.2657 O   0  0  0  0  0  0  0  0  0  0  0  0
    4.7167   42.9392   51.1226 C   0  0  0  0  0  0  0  0  0  0  0  0
    4.1090   42.1102   50.1440 C   0  0  0  0  0  0  0  0  0  0  0  0
    4.8673   41.5294   49.1292 C   0  0  0  0  0  0  0  0  0  0  0  0
    6.2330   41.7704   49.0797 C   0  0  0  0  0  0  0  0  0  0  0  0
    6.8251   42.5961   50.0386 C   0  0  0  0  0  0  0  0  0  0  0  0
    6.0888   43.1888   51.0583 C   0  0  0  0  0  0  0  0  0  0  0  0
    6.7216   43.9743   51.9311 N   0  0  0  0  0  0  0  0  0  0  0  0
    7.6655   47.5202   54.2444 C   0  0  0  0  0  0  0  0  0  0  0  0
    8.8031   48.3340   54.3078 C   0  0  0  0  0  0  0  0  0  0  0  0
   13.0684   48.1266   54.1234 H   0  0  0  0  0  0  0  0  0  0  0  0
   12.1019   47.5461   52.7250 H   0  0  0  0  0  0  0  0  0  0  0  0
   12.6130   49.2660   52.8115 H   0  0  0  0  0  0  0  0  0  0  0  0
   11.1500   46.0638   53.3693 H   0  0  0  0  0  0  0  0  0  0  0  0
    9.1279   44.6188   53.2630 H   0  0  0  0  0  0  0  0  0  0  0  0
    5.9480   45.5157   54.6088 H   0  0  0  0  0  0  0  0  0  0  0  0
    2.3709   42.5836   51.7454 H   0  0  0  0  0  0  0  0  0  0  0  0
    1.3899   42.3353   53.6665 H   0  0  0  0  0  0  0  0  0  0  0  0
    3.0318   42.7442   54.3068 H   0  0  0  0  0  0  0  0  0  0  0  0
    1.4045   45.1134   53.5717 H   0  0  0  0  0  0  0  0  0  0  0  0
    0.6978   44.1266   54.8967 H   0  0  0  0  0  0  0  0  0  0  0  0
    2.8019   45.7994   54.9465 H   0  0  0  0  0  0  0  0  0  0  0  0
    3.0258   41.9238   50.1871 H   0  0  0  0  0  0  0  0  0  0  0  0
    4.3885   40.8868   48.3757 H   0  0  0  0  0  0  0  0  0  0  0  0
    6.8465   41.3135   48.2891 H   0  0  0  0  0  0  0  0  0  0  0  0
    7.9078   42.7832   49.9852 H   0  0  0  0  0  0  0  0  0  0  0  0
    6.6833   47.9454   54.4987 H   0  0  0  0  0  0  0  0  0  0  0  0
    8.7036   49.3873   54.6090 H   0  0  0  0  0  0  0  0  0  0  0  0
  1  2  1  0
  2  3  1  0
  3  4  2  0
  4  5  1  0
  5  6  2  0
  6  7  1  0
  7  8  1  0
  8  9  2  0
  9 10  1  0
 10 11  1  0
 11 12  1  0
 12 13  1  0
 13 14  1  0
 10 15  2  0
 15 16  1  0
 16 17  2  0
 17 18  1  0
 18 19  2  0
 19 20  1  0
 20 21  2  0
  6 22  1  0
 22 23  2  0
 23  3  1  0
 21  8  1  0
 20 15  1  0
  1 24  1  0
  1 25  1  0
  1 26  1  0
  4 27  1  0
  5 28  1  0
  7 29  1  0
 11 30  1  0
 12 31  1  0
 12 32  1  0
 13 33  1  0
 13 34  1  0
 14 35  1  0
 16 36  1  0
 17 37  1  0
 18 38  1  0
 19 39  1  0
 22 40  1  0
 23 41  1  0
M  END
>  <meeko>  (6) 
{"is_sidechain": false}

>  <CID>  (6) 
Z57346758

>  <pose_index>  (6) 
7

>  <docking_score>  (6) 
-7.679

>  <rmsd_to_best_selected>  (6) 
1.859736782201248

>  <MWT>  (6) 
310.3569999999997

>  <TPSA>  (6) 
79.3

>  <logP>  (6) 
2.786200000000001

>  <HBD>  (6) 
3

>  <HBA>  (6) 
6

>  <SMILES>  (6) 
[H]OC([H])([H])C([H])([H])N([H])c1nc(N([H])c2c([H])c([H])c(OC([H])([H])[H])c([H])c2[H])nc2c([H])c([H])c([H])c([H])c12

$$$$
