Z89684168_pose3
     RDKit          3D

 38 40  0  0  0  0  0  0  0  0999 V2000
    6.6957   46.5455   51.3325 N   0  0  0  0  0  0  0  0  0  0  0  0
    7.6165   46.4123   52.0262 C   0  0  0  0  0  0  0  0  0  0  0  0
    8.7231   46.2304   52.9233 C   0  0  0  0  0  0  0  0  0  0  0  0
    9.9580   45.8132   52.4076 C   0  0  0  0  0  0  0  0  0  0  0  0
   11.0494   45.6287   53.2571 C   0  0  0  0  0  0  0  0  0  0  0  0
   10.9108   45.8488   54.6260 C   0  0  0  0  0  0  0  0  0  0  0  0
    9.6858   46.2648   55.1496 C   0  0  0  0  0  0  0  0  0  0  0  0
    8.5972   46.4766   54.2985 C   0  0  0  0  0  0  0  0  0  0  0  0
    7.3748   46.8628   54.7851 O   0  0  0  0  0  0  0  0  0  0  0  0
    6.5783   45.7896   55.3198 C   0  0  0  0  0  0  0  0  0  0  0  0
    5.2418   45.5727   54.6340 C   0  0  0  0  0  0  0  0  0  0  0  0
    4.2434   46.4022   54.9240 N   0  0  0  0  0  0  0  0  0  0  0  0
    3.1059   46.1587   54.3011 C   0  0  0  0  0  0  0  0  0  0  0  0
    2.0384   46.9779   54.6030 N   0  0  0  0  0  0  0  0  0  0  0  0
    2.9256   45.2080   53.4022 N   0  0  0  0  0  0  0  0  0  0  0  0
    3.9732   44.4302   53.1540 C   0  0  0  0  0  0  0  0  0  0  0  0
    3.9157   43.3937   52.2238 N   0  0  0  0  0  0  0  0  0  0  0  0
    4.1154   43.3155   50.8406 C   0  0  0  0  0  0  0  0  0  0  0  0
    3.0951   43.0728   49.9156 C   0  0  0  0  0  0  0  0  0  0  0  0
    3.3563   43.0300   48.5411 C   0  0  0  0  0  0  0  0  0  0  0  0
    4.6480   43.2380   48.0655 C   0  0  0  0  0  0  0  0  0  0  0  0
    5.6771   43.4906   48.9663 C   0  0  0  0  0  0  0  0  0  0  0  0
    5.4100   43.5315   50.3381 C   0  0  0  0  0  0  0  0  0  0  0  0
    5.1571   44.5783   53.7461 N   0  0  0  0  0  0  0  0  0  0  0  0
   10.0671   45.6305   51.3284 H   0  0  0  0  0  0  0  0  0  0  0  0
   12.0187   45.3097   52.8464 H   0  0  0  0  0  0  0  0  0  0  0  0
   11.7694   45.6943   55.2960 H   0  0  0  0  0  0  0  0  0  0  0  0
    9.5769   46.4261   56.2322 H   0  0  0  0  0  0  0  0  0  0  0  0
    7.1593   44.8595   55.2346 H   0  0  0  0  0  0  0  0  0  0  0  0
    6.3465   46.0696   56.3580 H   0  0  0  0  0  0  0  0  0  0  0  0
    2.0649   47.2638   55.5700 H   0  0  0  0  0  0  0  0  0  0  0  0
    1.1744   46.5769   54.2567 H   0  0  0  0  0  0  0  0  0  0  0  0
    3.5822   42.5556   52.6771 H   0  0  0  0  0  0  0  0  0  0  0  0
    2.0679   42.9125   50.2749 H   0  0  0  0  0  0  0  0  0  0  0  0
    2.5376   42.8313   47.8338 H   0  0  0  0  0  0  0  0  0  0  0  0
    4.8532   43.2028   46.9854 H   0  0  0  0  0  0  0  0  0  0  0  0
    6.7005   43.6581   48.5997 H   0  0  0  0  0  0  0  0  0  0  0  0
    6.2317   43.7374   51.0399 H   0  0  0  0  0  0  0  0  0  0  0  0
  1  2  3  0
  2  3  1  0
  3  4  2  0
  4  5  1  0
  5  6  2  0
  6  7  1  0
  7  8  2  0
  8  9  1  0
  9 10  1  0
 10 11  1  0
 11 12  2  0
 12 13  1  0
 13 14  1  0
 13 15  2  0
 15 16  1  0
 16 17  1  0
 17 18  1  0
 18 19  2  0
 19 20  1  0
 20 21  2  0
 21 22  1  0
 22 23  2  0
 16 24  2  0
  8  3  1  0
 24 11  1  0
 23 18  1  0
  4 25  1  0
  5 26  1  0
  6 27  1  0
  7 28  1  0
 10 29  1  0
 10 30  1  0
 14 31  1  0
 14 32  1  0
 17 33  1  0
 19 34  1  0
 20 35  1  0
 21 36  1  0
 22 37  1  0
 23 38  1  0
M  END
>  <meeko>  (1) 
{"is_sidechain": false}

>  <CID>  (1) 
Z89684168

>  <pose_index>  (1) 
3

>  <docking_score>  (1) 
-9.007

>  <rmsd_to_best_selected>  (1) 
0.0

>  <MWT>  (1) 
318.33999999999975

>  <TPSA>  (1) 
109.74

>  <logP>  (1) 
2.64808

>  <HBD>  (1) 
2

>  <HBA>  (1) 
7

>  <SMILES>  (1) 
[H]c1c([H])c([H])c(N([H])c2nc(N([H])[H])nc(C([H])([H])Oc3c([H])c([H])c([H])c([H])c3C#N)n2)c([H])c1[H]

$$$$
Z89684168_pose4
     RDKit          3D

 38 40  0  0  0  0  0  0  0  0999 V2000
    8.8469   43.8233   51.4306 N   0  0  0  0  0  0  0  0  0  0  0  0
    9.2297   44.4749   52.3120 C   0  0  0  0  0  0  0  0  0  0  0  0
    9.6598   45.2644   53.4314 C   0  0  0  0  0  0  0  0  0  0  0  0
   10.8542   44.9275   54.0853 C   0  0  0  0  0  0  0  0  0  0  0  0
   11.2949   45.6768   55.1752 C   0  0  0  0  0  0  0  0  0  0  0  0
   10.5430   46.7614   55.6251 C   0  0  0  0  0  0  0  0  0  0  0  0
    9.3544   47.1059   54.9816 C   0  0  0  0  0  0  0  0  0  0  0  0
    8.9219   46.3725   53.8715 C   0  0  0  0  0  0  0  0  0  0  0  0
    7.7463   46.6727   53.2313 O   0  0  0  0  0  0  0  0  0  0  0  0
    6.6330   46.9189   54.1121 C   0  0  0  0  0  0  0  0  0  0  0  0
    5.4470   45.9908   53.9287 C   0  0  0  0  0  0  0  0  0  0  0  0
    4.4207   46.1071   54.7663 N   0  0  0  0  0  0  0  0  0  0  0  0
    3.4234   45.2689   54.5594 C   0  0  0  0  0  0  0  0  0  0  0  0
    2.3557   45.3379   55.4307 N   0  0  0  0  0  0  0  0  0  0  0  0
    3.3653   44.3917   53.5742 N   0  0  0  0  0  0  0  0  0  0  0  0
    4.4201   44.3461   52.7685 C   0  0  0  0  0  0  0  0  0  0  0  0
    4.4826   43.4677   51.6881 N   0  0  0  0  0  0  0  0  0  0  0  0
    3.9813   43.4958   50.3807 C   0  0  0  0  0  0  0  0  0  0  0  0
    2.6273   43.3592   50.0596 C   0  0  0  0  0  0  0  0  0  0  0  0
    2.1869   43.4194   48.7325 C   0  0  0  0  0  0  0  0  0  0  0  0
    3.0967   43.6277   47.7001 C   0  0  0  0  0  0  0  0  0  0  0  0
    4.4460   43.7764   47.9958 C   0  0  0  0  0  0  0  0  0  0  0  0
    4.8805   43.7137   49.3249 C   0  0  0  0  0  0  0  0  0  0  0  0
    5.4866   45.1327   52.9067 N   0  0  0  0  0  0  0  0  0  0  0  0
   11.4458   44.0681   53.7365 H   0  0  0  0  0  0  0  0  0  0  0  0
   12.2357   45.4125   55.6801 H   0  0  0  0  0  0  0  0  0  0  0  0
   10.8881   47.3469   56.4900 H   0  0  0  0  0  0  0  0  0  0  0  0
    8.7571   47.9543   55.3469 H   0  0  0  0  0  0  0  0  0  0  0  0
    6.9891   46.8156   55.1478 H   0  0  0  0  0  0  0  0  0  0  0  0
    6.2704   47.9290   53.8709 H   0  0  0  0  0  0  0  0  0  0  0  0
    1.5203   45.6428   54.9543 H   0  0  0  0  0  0  0  0  0  0  0  0
    2.6189   45.8291   56.2760 H   0  0  0  0  0  0  0  0  0  0  0  0
    4.9289   42.6107   51.9789 H   0  0  0  0  0  0  0  0  0  0  0  0
    1.8948   43.2015   50.8649 H   0  0  0  0  0  0  0  0  0  0  0  0
    1.1172   43.3015   48.5045 H   0  0  0  0  0  0  0  0  0  0  0  0
    2.7498   43.6744   46.6573 H   0  0  0  0  0  0  0  0  0  0  0  0
    5.1720   43.9431   47.1864 H   0  0  0  0  0  0  0  0  0  0  0  0
    5.9507   43.8379   49.5471 H   0  0  0  0  0  0  0  0  0  0  0  0
  1  2  3  0
  2  3  1  0
  3  4  2  0
  4  5  1  0
  5  6  2  0
  6  7  1  0
  7  8  2  0
  8  9  1  0
  9 10  1  0
 10 11  1  0
 11 12  2  0
 12 13  1  0
 13 14  1  0
 13 15  2  0
 15 16  1  0
 16 17  1  0
 17 18  1  0
 18 19  2  0
 19 20  1  0
 20 21  2  0
 21 22  1  0
 22 23  2  0
 16 24  2  0
  8  3  1  0
 24 11  1  0
 23 18  1  0
  4 25  1  0
  5 26  1  0
  6 27  1  0
  7 28  1  0
 10 29  1  0
 10 30  1  0
 14 31  1  0
 14 32  1  0
 17 33  1  0
 19 34  1  0
 20 35  1  0
 21 36  1  0
 22 37  1  0
 23 38  1  0
M  END
>  <meeko>  (2) 
{"is_sidechain": false}

>  <CID>  (2) 
Z89684168

>  <pose_index>  (2) 
4

>  <docking_score>  (2) 
-8.989

>  <rmsd_to_best_selected>  (2) 
1.7461461220517283

>  <MWT>  (2) 
318.33999999999975

>  <TPSA>  (2) 
109.74

>  <logP>  (2) 
2.64808

>  <HBD>  (2) 
2

>  <HBA>  (2) 
7

>  <SMILES>  (2) 
[H]c1c([H])c([H])c(N([H])c2nc(N([H])[H])nc(C([H])([H])Oc3c([H])c([H])c([H])c([H])c3C#N)n2)c([H])c1[H]

$$$$
Z89684168_pose5
     RDKit          3D

 38 40  0  0  0  0  0  0  0  0999 V2000
    8.6019   44.0106   51.4421 N   0  0  0  0  0  0  0  0  0  0  0  0
    8.9963   44.5897   52.3680 C   0  0  0  0  0  0  0  0  0  0  0  0
    9.5332   45.2848   53.5038 C   0  0  0  0  0  0  0  0  0  0  0  0
   10.7151   46.0242   53.3560 C   0  0  0  0  0  0  0  0  0  0  0  0
   11.2586   46.7085   54.4426 C   0  0  0  0  0  0  0  0  0  0  0  0
   10.6304   46.6515   55.6865 C   0  0  0  0  0  0  0  0  0  0  0  0
    9.4528   45.9183   55.8444 C   0  0  0  0  0  0  0  0  0  0  0  0
    8.8915   45.2532   54.7506 C   0  0  0  0  0  0  0  0  0  0  0  0
    7.7469   44.5063   54.8795 O   0  0  0  0  0  0  0  0  0  0  0  0
    6.6175   45.2301   55.4024 C   0  0  0  0  0  0  0  0  0  0  0  0
    5.4504   45.3859   54.4444 C   0  0  0  0  0  0  0  0  0  0  0  0
    4.3041   45.8640   54.9216 N   0  0  0  0  0  0  0  0  0  0  0  0
    3.3265   45.9692   54.0430 C   0  0  0  0  0  0  0  0  0  0  0  0
    2.1118   46.4284   54.5086 N   0  0  0  0  0  0  0  0  0  0  0  0
    3.4326   45.6905   52.7558 N   0  0  0  0  0  0  0  0  0  0  0  0
    4.6133   45.2346   52.3519 C   0  0  0  0  0  0  0  0  0  0  0  0
    4.8582   44.9072   51.0193 N   0  0  0  0  0  0  0  0  0  0  0  0
    4.1827   44.1347   50.0668 C   0  0  0  0  0  0  0  0  0  0  0  0
    2.8771   43.6596   50.2286 C   0  0  0  0  0  0  0  0  0  0  0  0
    2.2492   42.9100   49.2267 C   0  0  0  0  0  0  0  0  0  0  0  0
    2.9146   42.6312   48.0376 C   0  0  0  0  0  0  0  0  0  0  0  0
    4.2085   43.1011   47.8503 C   0  0  0  0  0  0  0  0  0  0  0  0
    4.8325   43.8484   48.8545 C   0  0  0  0  0  0  0  0  0  0  0  0
    5.6566   45.0688   53.1644 N   0  0  0  0  0  0  0  0  0  0  0  0
   11.2165   46.0646   52.3777 H   0  0  0  0  0  0  0  0  0  0  0  0
   12.1822   47.2929   54.3188 H   0  0  0  0  0  0  0  0  0  0  0  0
   11.0637   47.1855   56.5450 H   0  0  0  0  0  0  0  0  0  0  0  0
    8.9667   45.8640   56.8297 H   0  0  0  0  0  0  0  0  0  0  0  0
    6.2564   44.6986   56.2952 H   0  0  0  0  0  0  0  0  0  0  0  0
    6.9779   46.2479   55.6128 H   0  0  0  0  0  0  0  0  0  0  0  0
    1.5332   46.7529   53.7478 H   0  0  0  0  0  0  0  0  0  0  0  0
    2.2466   47.0533   55.2937 H   0  0  0  0  0  0  0  0  0  0  0  0
    5.7621   45.2633   50.7485 H   0  0  0  0  0  0  0  0  0  0  0  0
    2.3340   43.8788   51.1597 H   0  0  0  0  0  0  0  0  0  0  0  0
    1.2248   42.5399   49.3807 H   0  0  0  0  0  0  0  0  0  0  0  0
    2.4198   42.0427   47.2509 H   0  0  0  0  0  0  0  0  0  0  0  0
    4.7420   42.8855   46.9127 H   0  0  0  0  0  0  0  0  0  0  0  0
    5.8549   44.2202   48.6914 H   0  0  0  0  0  0  0  0  0  0  0  0
  1  2  3  0
  2  3  1  0
  3  4  2  0
  4  5  1  0
  5  6  2  0
  6  7  1  0
  7  8  2  0
  8  9  1  0
  9 10  1  0
 10 11  1  0
 11 12  2  0
 12 13  1  0
 13 14  1  0
 13 15  2  0
 15 16  1  0
 16 17  1  0
 17 18  1  0
 18 19  2  0
 19 20  1  0
 20 21  2  0
 21 22  1  0
 22 23  2  0
 16 24  2  0
  8  3  1  0
 24 11  1  0
 23 18  1  0
  4 25  1  0
  5 26  1  0
  6 27  1  0
  7 28  1  0
 10 29  1  0
 10 30  1  0
 14 31  1  0
 14 32  1  0
 17 33  1  0
 19 34  1  0
 20 35  1  0
 21 36  1  0
 22 37  1  0
 23 38  1  0
M  END
>  <meeko>  (3) 
{"is_sidechain": false}

>  <CID>  (3) 
Z89684168

>  <pose_index>  (3) 
5

>  <docking_score>  (3) 
-8.918

>  <rmsd_to_best_selected>  (3) 
1.720189849490804

>  <MWT>  (3) 
318.33999999999975

>  <TPSA>  (3) 
109.74

>  <logP>  (3) 
2.64808

>  <HBD>  (3) 
2

>  <HBA>  (3) 
7

>  <SMILES>  (3) 
[H]c1c([H])c([H])c(N([H])c2nc(N([H])[H])nc(C([H])([H])Oc3c([H])c([H])c([H])c([H])c3C#N)n2)c([H])c1[H]

$$$$
Z89684168_pose6
     RDKit          3D

 38 40  0  0  0  0  0  0  0  0999 V2000
    9.6260   43.9870   51.1514 N   0  0  0  0  0  0  0  0  0  0  0  0
    9.7635   44.5015   52.1835 C   0  0  0  0  0  0  0  0  0  0  0  0
    9.9311   45.1844   53.4355 C   0  0  0  0  0  0  0  0  0  0  0  0
   11.1507   45.8199   53.7086 C   0  0  0  0  0  0  0  0  0  0  0  0
   11.3394   46.4900   54.9174 C   0  0  0  0  0  0  0  0  0  0  0  0
   10.3153   46.5219   55.8634 C   0  0  0  0  0  0  0  0  0  0  0  0
    9.0972   45.8942   55.6002 C   0  0  0  0  0  0  0  0  0  0  0  0
    8.8953   45.2440   54.3794 C   0  0  0  0  0  0  0  0  0  0  0  0
    7.7177   44.5979   54.1013 O   0  0  0  0  0  0  0  0  0  0  0  0
    6.6056   45.0038   54.9211 C   0  0  0  0  0  0  0  0  0  0  0  0
    5.3624   45.4286   54.1611 C   0  0  0  0  0  0  0  0  0  0  0  0
    4.3861   46.0299   54.8353 N   0  0  0  0  0  0  0  0  0  0  0  0
    3.3308   46.3685   54.1201 C   0  0  0  0  0  0  0  0  0  0  0  0
    2.2829   46.9630   54.7932 N   0  0  0  0  0  0  0  0  0  0  0  0
    3.2158   46.2014   52.8155 N   0  0  0  0  0  0  0  0  0  0  0  0
    4.2383   45.6096   52.2097 C   0  0  0  0  0  0  0  0  0  0  0  0
    4.2448   45.3779   50.8347 N   0  0  0  0  0  0  0  0  0  0  0  0
    3.8804   44.2922   50.0289 C   0  0  0  0  0  0  0  0  0  0  0  0
    3.0478   43.2507   50.4496 C   0  0  0  0  0  0  0  0  0  0  0  0
    2.7032   42.2038   49.5864 C   0  0  0  0  0  0  0  0  0  0  0  0
    3.1796   42.1867   48.2797 C   0  0  0  0  0  0  0  0  0  0  0  0
    4.0020   43.2160   47.8359 C   0  0  0  0  0  0  0  0  0  0  0  0
    4.3437   44.2591   48.7033 C   0  0  0  0  0  0  0  0  0  0  0  0
    5.3390   45.2074   52.8442 N   0  0  0  0  0  0  0  0  0  0  0  0
   11.9621   45.7900   52.9665 H   0  0  0  0  0  0  0  0  0  0  0  0
   12.2956   46.9930   55.1243 H   0  0  0  0  0  0  0  0  0  0  0  0
   10.4682   47.0434   56.8197 H   0  0  0  0  0  0  0  0  0  0  0  0
    8.2958   45.9111   56.3534 H   0  0  0  0  0  0  0  0  0  0  0  0
    6.3351   44.1579   55.5702 H   0  0  0  0  0  0  0  0  0  0  0  0
    6.9432   45.8925   55.4745 H   0  0  0  0  0  0  0  0  0  0  0  0
    1.6444   47.4048   54.1481 H   0  0  0  0  0  0  0  0  0  0  0  0
    2.6284   47.5195   55.5654 H   0  0  0  0  0  0  0  0  0  0  0  0
    4.6818   46.1579   50.3669 H   0  0  0  0  0  0  0  0  0  0  0  0
    2.6564   43.2540   51.4776 H   0  0  0  0  0  0  0  0  0  0  0  0
    2.0529   41.3915   49.9429 H   0  0  0  0  0  0  0  0  0  0  0  0
    2.9075   41.3641   47.6020 H   0  0  0  0  0  0  0  0  0  0  0  0
    4.3834   43.2102   46.8041 H   0  0  0  0  0  0  0  0  0  0  0  0
    4.9897   45.0715   48.3391 H   0  0  0  0  0  0  0  0  0  0  0  0
  1  2  3  0
  2  3  1  0
  3  4  2  0
  4  5  1  0
  5  6  2  0
  6  7  1  0
  7  8  2  0
  8  9  1  0
  9 10  1  0
 10 11  1  0
 11 12  2  0
 12 13  1  0
 13 14  1  0
 13 15  2  0
 15 16  1  0
 16 17  1  0
 17 18  1  0
 18 19  2  0
 19 20  1  0
 20 21  2  0
 21 22  1  0
 22 23  2  0
 16 24  2  0
  8  3  1  0
 24 11  1  0
 23 18  1  0
  4 25  1  0
  5 26  1  0
  6 27  1  0
  7 28  1  0
 10 29  1  0
 10 30  1  0
 14 31  1  0
 14 32  1  0
 17 33  1  0
 19 34  1  0
 20 35  1  0
 21 36  1  0
 22 37  1  0
 23 38  1  0
M  END
>  <meeko>  (4) 
{"is_sidechain": false}

>  <CID>  (4) 
Z89684168

>  <pose_index>  (4) 
6

>  <docking_score>  (4) 
-8.89

>  <rmsd_to_best_selected>  (4) 
1.9610522162968342

>  <MWT>  (4) 
318.33999999999975

>  <TPSA>  (4) 
109.74

>  <logP>  (4) 
2.64808

>  <HBD>  (4) 
2

>  <HBA>  (4) 
7

>  <SMILES>  (4) 
[H]c1c([H])c([H])c(N([H])c2nc(N([H])[H])nc(C([H])([H])Oc3c([H])c([H])c([H])c([H])c3C#N)n2)c([H])c1[H]

$$$$
Z89684168_pose10
     RDKit          3D

 38 40  0  0  0  0  0  0  0  0999 V2000
    7.7068   42.7634   52.3671 N   0  0  0  0  0  0  0  0  0  0  0  0
    8.4233   43.5125   52.8897 C   0  0  0  0  0  0  0  0  0  0  0  0
    9.3125   44.4055   53.5776 C   0  0  0  0  0  0  0  0  0  0  0  0
   10.4888   43.8944   54.1459 C   0  0  0  0  0  0  0  0  0  0  0  0
   11.3695   44.7400   54.8192 C   0  0  0  0  0  0  0  0  0  0  0  0
   11.0784   46.0979   54.9392 C   0  0  0  0  0  0  0  0  0  0  0  0
    9.9116   46.6173   54.3757 C   0  0  0  0  0  0  0  0  0  0  0  0
    9.0389   45.7774   53.6769 C   0  0  0  0  0  0  0  0  0  0  0  0
    7.8729   46.2537   53.1315 O   0  0  0  0  0  0  0  0  0  0  0  0
    6.8300   46.5165   54.0891 C   0  0  0  0  0  0  0  0  0  0  0  0
    5.4423   46.6918   53.5004 C   0  0  0  0  0  0  0  0  0  0  0  0
    4.6116   47.5486   54.0883 N   0  0  0  0  0  0  0  0  0  0  0  0
    3.4192   47.6511   53.5347 C   0  0  0  0  0  0  0  0  0  0  0  0
    2.5200   48.5052   54.1381 N   0  0  0  0  0  0  0  0  0  0  0  0
    3.0359   47.0165   52.4417 N   0  0  0  0  0  0  0  0  0  0  0  0
    3.9254   46.1904   51.9022 C   0  0  0  0  0  0  0  0  0  0  0  0
    3.6477   45.4639   50.7460 N   0  0  0  0  0  0  0  0  0  0  0  0
    3.7074   44.1055   50.4112 C   0  0  0  0  0  0  0  0  0  0  0  0
    4.8878   43.4329   50.0801 C   0  0  0  0  0  0  0  0  0  0  0  0
    4.8820   42.0668   49.7771 C   0  0  0  0  0  0  0  0  0  0  0  0
    3.6936   41.3446   49.8085 C   0  0  0  0  0  0  0  0  0  0  0  0
    2.5086   41.9901   50.1439 C   0  0  0  0  0  0  0  0  0  0  0  0
    2.5192   43.3566   50.4454 C   0  0  0  0  0  0  0  0  0  0  0  0
    5.1472   45.9979   52.3979 N   0  0  0  0  0  0  0  0  0  0  0  0
   10.7173   42.8219   54.0599 H   0  0  0  0  0  0  0  0  0  0  0  0
   12.2945   44.3354   55.2559 H   0  0  0  0  0  0  0  0  0  0  0  0
   11.7696   46.7617   55.4792 H   0  0  0  0  0  0  0  0  0  0  0  0
    9.6787   47.6872   54.4813 H   0  0  0  0  0  0  0  0  0  0  0  0
    6.7961   45.6738   54.7954 H   0  0  0  0  0  0  0  0  0  0  0  0
    7.0846   47.4762   54.5625 H   0  0  0  0  0  0  0  0  0  0  0  0
    1.9272   48.0073   54.7854 H   0  0  0  0  0  0  0  0  0  0  0  0
    2.0686   49.0917   53.4462 H   0  0  0  0  0  0  0  0  0  0  0  0
    3.4338   46.1030   49.9934 H   0  0  0  0  0  0  0  0  0  0  0  0
    5.8375   43.9874   50.0576 H   0  0  0  0  0  0  0  0  0  0  0  0
    5.8225   41.5613   49.5124 H   0  0  0  0  0  0  0  0  0  0  0  0
    3.6913   40.2708   49.5699 H   0  0  0  0  0  0  0  0  0  0  0  0
    1.5639   41.4273   50.1720 H   0  0  0  0  0  0  0  0  0  0  0  0
    1.5766   43.8553   50.7152 H   0  0  0  0  0  0  0  0  0  0  0  0
  1  2  3  0
  2  3  1  0
  3  4  2  0
  4  5  1  0
  5  6  2  0
  6  7  1  0
  7  8  2  0
  8  9  1  0
  9 10  1  0
 10 11  1  0
 11 12  2  0
 12 13  1  0
 13 14  1  0
 13 15  2  0
 15 16  1  0
 16 17  1  0
 17 18  1  0
 18 19  2  0
 19 20  1  0
 20 21  2  0
 21 22  1  0
 22 23  2  0
 16 24  2  0
  8  3  1  0
 24 11  1  0
 23 18  1  0
  4 25  1  0
  5 26  1  0
  6 27  1  0
  7 28  1  0
 10 29  1  0
 10 30  1  0
 14 31  1  0
 14 32  1  0
 17 33  1  0
 19 34  1  0
 20 35  1  0
 21 36  1  0
 22 37  1  0
 23 38  1  0
M  END
>  <meeko>  (5) 
{"is_sidechain": false}

>  <CID>  (5) 
Z89684168

>  <pose_index>  (5) 
10

>  <docking_score>  (5) 
-8.626

>  <rmsd_to_best_selected>  (5) 
1.5133959125904175

>  <MWT>  (5) 
318.33999999999975

>  <TPSA>  (5) 
109.74

>  <logP>  (5) 
2.64808

>  <HBD>  (5) 
2

>  <HBA>  (5) 
7

>  <SMILES>  (5) 
[H]c1c([H])c([H])c(N([H])c2nc(N([H])[H])nc(C([H])([H])Oc3c([H])c([H])c([H])c([H])c3C#N)n2)c([H])c1[H]

$$$$
