Z91661383_pose1
     RDKit          3D

 44 46  0  0  0  0  0  0  0  0999 V2000
   10.2380   47.5360   55.0810 C   0  0  0  0  0  0  0  0  0  0  0  0
    9.3530   47.0100   53.9900 C   0  0  0  0  0  0  0  0  0  0  0  0
    9.8630   46.7800   52.7100 C   0  0  0  0  0  0  0  0  0  0  0  0
    9.0320   46.3150   51.6830 C   0  0  0  0  0  0  0  0  0  0  0  0
    7.6730   46.0740   51.9010 C   0  0  0  0  0  0  0  0  0  0  0  0
    6.7910   45.6120   50.9170 N   0  0  0  0  0  0  0  0  0  0  0  0
    6.0270   44.4580   50.7610 C   0  0  0  0  0  0  0  0  0  0  0  0
    6.6420   43.4600   50.1330 N   0  0  0  0  0  0  0  0  0  0  0  0
    5.9310   42.3590   49.9520 C   0  0  0  0  0  0  0  0  0  0  0  0
    6.5450   41.3040   49.3090 N   0  0  0  0  0  0  0  0  0  0  0  0
    4.6910   42.1750   50.3680 N   0  0  0  0  0  0  0  0  0  0  0  0
    4.1490   43.2240   50.9880 C   0  0  0  0  0  0  0  0  0  0  0  0
    2.7110   43.1100   51.4360 C   0  0  0  0  0  0  0  0  0  0  0  0
    2.6670   42.6700   52.8080 O   0  0  0  0  0  0  0  0  0  0  0  0
    1.6760   43.3030   53.5130 C   0  0  0  0  0  0  0  0  0  0  0  0
    0.3860   42.7560   53.4890 C   0  0  0  0  0  0  0  0  0  0  0  0
   -0.6540   43.3750   54.1840 C   0  0  0  0  0  0  0  0  0  0  0  0
   -0.4120   44.5490   54.8900 C   0  0  0  0  0  0  0  0  0  0  0  0
    0.8660   45.1140   54.8900 C   0  0  0  0  0  0  0  0  0  0  0  0
    1.9220   44.5060   54.1900 C   0  0  0  0  0  0  0  0  0  0  0  0
    3.2450   45.1970   54.2310 C   0  0  0  0  0  0  0  0  0  0  0  0
    4.3520   44.4560   54.5280 N   0  0  0  0  0  0  0  0  0  0  0  0
    3.3540   46.3930   53.9810 O   0  0  0  0  0  0  0  0  0  0  0  0
    4.7790   44.3790   51.2100 N   0  0  0  0  0  0  0  0  0  0  0  0
    7.1690   46.3280   53.1860 C   0  0  0  0  0  0  0  0  0  0  0  0
    7.9930   46.7920   54.2180 C   0  0  0  0  0  0  0  0  0  0  0  0
    9.8059   47.2792   56.0594 H   0  0  0  0  0  0  0  0  0  0  0  0
   11.2374   47.0852   54.9918 H   0  0  0  0  0  0  0  0  0  0  0  0
   10.3196   48.6293   54.9918 H   0  0  0  0  0  0  0  0  0  0  0  0
   10.9279   46.9660   52.5067 H   0  0  0  0  0  0  0  0  0  0  0  0
    9.4577   46.1359   50.6847 H   0  0  0  0  0  0  0  0  0  0  0  0
    6.5880   46.2480   50.1600 H   0  0  0  0  0  0  0  0  0  0  0  0
    5.8700   40.7500   48.8020 H   0  0  0  0  0  0  0  0  0  0  0  0
    7.3610   41.6170   48.8020 H   0  0  0  0  0  0  0  0  0  0  0  0
    2.2216   44.0914   51.3501 H   0  0  0  0  0  0  0  0  0  0  0  0
    2.1865   42.3810   50.8009 H   0  0  0  0  0  0  0  0  0  0  0  0
    0.1923   41.8348   52.9199 H   0  0  0  0  0  0  0  0  0  0  0  0
   -1.6624   42.9357   54.1736 H   0  0  0  0  0  0  0  0  0  0  0  0
   -1.2270   45.0327   55.4484 H   0  0  0  0  0  0  0  0  0  0  0  0
    1.0477   46.0463   55.4448 H   0  0  0  0  0  0  0  0  0  0  0  0
    4.3090   43.4440   54.5560 H   0  0  0  0  0  0  0  0  0  0  0  0
    5.2510   44.9020   54.4180 H   0  0  0  0  0  0  0  0  0  0  0  0
    6.1009   46.1584   53.3869 H   0  0  0  0  0  0  0  0  0  0  0  0
    7.5669   46.9858   55.2134 H   0  0  0  0  0  0  0  0  0  0  0  0
  1  2  1  0
  2  3  2  0
  3  4  1  0
  4  5  2  0
  5  6  1  0
  6  7  1  0
  7  8  2  0
  8  9  1  0
  9 10  1  0
  9 11  2  0
 11 12  1  0
 12 13  1  0
 13 14  1  0
 14 15  1  0
 15 16  2  0
 16 17  1  0
 17 18  2  0
 18 19  1  0
 19 20  2  0
 20 21  1  0
 21 22  1  0
 21 23  2  0
 12 24  2  0
  5 25  1  0
 25 26  2  0
 26  2  1  0
 24  7  1  0
 20 15  1  0
  1 27  1  0
  1 28  1  0
  1 29  1  0
  3 30  1  0
  4 31  1  0
  6 32  1  0
 10 33  1  0
 10 34  1  0
 13 35  1  0
 13 36  1  0
 16 37  1  0
 17 38  1  0
 18 39  1  0
 19 40  1  0
 22 41  1  0
 22 42  1  0
 25 43  1  0
 26 44  1  0
M  END
>  <meeko>  (1) 
{"is_sidechain": false}

>  <CID>  (1) 
Z91661383

>  <pose_index>  (1) 
1

>  <docking_score>  (1) 
-9.134

>  <rmsd_to_best_selected>  (1) 
0.0

>  <MWT>  (1) 
350.3819999999997

>  <TPSA>  (1) 
129.04000000000002

>  <logP>  (1) 
2.18372

>  <HBD>  (1) 
3

>  <HBA>  (1) 
7

>  <SMILES>  (1) 
[H]c1c([H])c([H])c(C(=O)N([H])[H])c(OC([H])([H])c2nc(N([H])[H])nc(N([H])c3c([H])c([H])c(C([H])([H])[H])c([H])c3[H])n2)c1[H]

$$$$
Z91661383_pose2
     RDKit          3D

 44 46  0  0  0  0  0  0  0  0999 V2000
   10.5344   47.2308   54.9486 C   0  0  0  0  0  0  0  0  0  0  0  0
    9.5215   46.7655   53.9442 C   0  0  0  0  0  0  0  0  0  0  0  0
    9.0964   47.6153   52.9200 C   0  0  0  0  0  0  0  0  0  0  0  0
    8.1310   47.1937   51.9971 C   0  0  0  0  0  0  0  0  0  0  0  0
    7.5576   45.9216   52.0752 C   0  0  0  0  0  0  0  0  0  0  0  0
    6.5879   45.4421   51.1868 N   0  0  0  0  0  0  0  0  0  0  0  0
    5.9316   44.2244   51.0270 C   0  0  0  0  0  0  0  0  0  0  0  0
    6.4103   43.4549   50.0528 N   0  0  0  0  0  0  0  0  0  0  0  0
    5.7924   42.3009   49.8660 C   0  0  0  0  0  0  0  0  0  0  0  0
    6.2697   41.4780   48.8661 N   0  0  0  0  0  0  0  0  0  0  0  0
    4.7746   41.8559   50.5805 N   0  0  0  0  0  0  0  0  0  0  0  0
    4.3584   42.6870   51.5365 C   0  0  0  0  0  0  0  0  0  0  0  0
    3.1569   42.2741   52.3531 C   0  0  0  0  0  0  0  0  0  0  0  0
    3.1181   43.0417   53.5730 O   0  0  0  0  0  0  0  0  0  0  0  0
    1.8997   43.6432   53.7560 C   0  0  0  0  0  0  0  0  0  0  0  0
    0.7482   42.9594   53.3419 C   0  0  0  0  0  0  0  0  0  0  0  0
   -0.5107   43.5408   53.4996 C   0  0  0  0  0  0  0  0  0  0  0  0
   -0.6215   44.8118   54.0548 C   0  0  0  0  0  0  0  0  0  0  0  0
    0.5270   45.5090   54.4403 C   0  0  0  0  0  0  0  0  0  0  0  0
    1.8018   44.9394   54.2825 C   0  0  0  0  0  0  0  0  0  0  0  0
    2.9694   45.7707   54.7022 C   0  0  0  0  0  0  0  0  0  0  0  0
    4.1083   45.7096   53.9515 N   0  0  0  0  0  0  0  0  0  0  0  0
    2.9134   46.5131   55.6768 O   0  0  0  0  0  0  0  0  0  0  0  0
    4.9081   43.8743   51.7970 N   0  0  0  0  0  0  0  0  0  0  0  0
    7.9793   45.0856   53.1210 C   0  0  0  0  0  0  0  0  0  0  0  0
    8.9442   45.4993   54.0465 C   0  0  0  0  0  0  0  0  0  0  0  0
   10.3483   48.2866   55.1949 H   0  0  0  0  0  0  0  0  0  0  0  0
   10.4527   46.6216   55.8609 H   0  0  0  0  0  0  0  0  0  0  0  0
   11.5447   47.1253   54.5265 H   0  0  0  0  0  0  0  0  0  0  0  0
    9.5242   48.6254   52.8377 H   0  0  0  0  0  0  0  0  0  0  0  0
    7.8178   47.8776   51.1945 H   0  0  0  0  0  0  0  0  0  0  0  0
    6.2061   46.1124   50.5335 H   0  0  0  0  0  0  0  0  0  0  0  0
    5.5626   40.8195   48.5730 H   0  0  0  0  0  0  0  0  0  0  0  0
    6.7276   42.0169   48.1448 H   0  0  0  0  0  0  0  0  0  0  0  0
    2.2396   42.4582   51.7747 H   0  0  0  0  0  0  0  0  0  0  0  0
    3.2288   41.2036   52.5956 H   0  0  0  0  0  0  0  0  0  0  0  0
    0.8372   41.9601   52.8907 H   0  0  0  0  0  0  0  0  0  0  0  0
   -1.4131   42.9956   53.1857 H   0  0  0  0  0  0  0  0  0  0  0  0
   -1.6131   45.2680   54.1905 H   0  0  0  0  0  0  0  0  0  0  0  0
    0.4316   46.5160   54.8725 H   0  0  0  0  0  0  0  0  0  0  0  0
    4.1130   45.2496   53.0487 H   0  0  0  0  0  0  0  0  0  0  0  0
    4.8374   46.3750   54.1624 H   0  0  0  0  0  0  0  0  0  0  0  0
    7.5409   44.0811   53.2153 H   0  0  0  0  0  0  0  0  0  0  0  0
    9.2490   44.8229   54.8587 H   0  0  0  0  0  0  0  0  0  0  0  0
  1  2  1  0
  2  3  2  0
  3  4  1  0
  4  5  2  0
  5  6  1  0
  6  7  1  0
  7  8  2  0
  8  9  1  0
  9 10  1  0
  9 11  2  0
 11 12  1  0
 12 13  1  0
 13 14  1  0
 14 15  1  0
 15 16  2  0
 16 17  1  0
 17 18  2  0
 18 19  1  0
 19 20  2  0
 20 21  1  0
 21 22  1  0
 21 23  2  0
 12 24  2  0
  5 25  1  0
 25 26  2  0
 26  2  1  0
 24  7  1  0
 20 15  1  0
  1 27  1  0
  1 28  1  0
  1 29  1  0
  3 30  1  0
  4 31  1  0
  6 32  1  0
 10 33  1  0
 10 34  1  0
 13 35  1  0
 13 36  1  0
 16 37  1  0
 17 38  1  0
 18 39  1  0
 19 40  1  0
 22 41  1  0
 22 42  1  0
 25 43  1  0
 26 44  1  0
M  END
>  <meeko>  (2) 
{"is_sidechain": false}

>  <CID>  (2) 
Z91661383

>  <pose_index>  (2) 
2

>  <docking_score>  (2) 
-9.101

>  <rmsd_to_best_selected>  (2) 
1.2559524858790454

>  <MWT>  (2) 
350.3819999999997

>  <TPSA>  (2) 
129.04000000000002

>  <logP>  (2) 
2.18372

>  <HBD>  (2) 
3

>  <HBA>  (2) 
7

>  <SMILES>  (2) 
[H]c1c([H])c([H])c(C(=O)N([H])[H])c(OC([H])([H])c2nc(N([H])[H])nc(N([H])c3c([H])c([H])c(C([H])([H])[H])c([H])c3[H])n2)c1[H]

$$$$
Z91661383_pose3
     RDKit          3D

 44 46  0  0  0  0  0  0  0  0999 V2000
   10.8849   48.1744   53.2837 C   0  0  0  0  0  0  0  0  0  0  0  0
    9.8533   47.0855   53.2511 C   0  0  0  0  0  0  0  0  0  0  0  0
    8.5986   47.2805   53.8357 C   0  0  0  0  0  0  0  0  0  0  0  0
    7.6435   46.2553   53.8319 C   0  0  0  0  0  0  0  0  0  0  0  0
    7.9139   45.0124   53.2551 C   0  0  0  0  0  0  0  0  0  0  0  0
    7.0042   43.9487   53.2207 N   0  0  0  0  0  0  0  0  0  0  0  0
    6.1254   43.4512   52.2610 C   0  0  0  0  0  0  0  0  0  0  0  0
    6.6403   42.5233   51.4588 N   0  0  0  0  0  0  0  0  0  0  0  0
    5.8328   42.0486   50.5243 C   0  0  0  0  0  0  0  0  0  0  0  0
    6.3382   41.0807   49.6798 N   0  0  0  0  0  0  0  0  0  0  0  0
    4.5719   42.4013   50.3559 N   0  0  0  0  0  0  0  0  0  0  0  0
    4.1342   43.3335   51.2016 C   0  0  0  0  0  0  0  0  0  0  0  0
    2.7200   43.8329   51.0284 C   0  0  0  0  0  0  0  0  0  0  0  0
    2.4628   44.8882   51.9761 O   0  0  0  0  0  0  0  0  0  0  0  0
    1.3875   44.6017   52.7771 C   0  0  0  0  0  0  0  0  0  0  0  0
    0.1953   44.1831   52.1705 C   0  0  0  0  0  0  0  0  0  0  0  0
   -0.9261   43.8917   52.9477 C   0  0  0  0  0  0  0  0  0  0  0  0
   -0.8657   44.0342   54.3314 C   0  0  0  0  0  0  0  0  0  0  0  0
    0.3122   44.4816   54.9359 C   0  0  0  0  0  0  0  0  0  0  0  0
    1.4479   44.7850   54.1663 C   0  0  0  0  0  0  0  0  0  0  0  0
    2.6500   45.2783   54.9018 C   0  0  0  0  0  0  0  0  0  0  0  0
    3.7153   45.7219   54.1726 N   0  0  0  0  0  0  0  0  0  0  0  0
    2.6852   45.3125   56.1266 O   0  0  0  0  0  0  0  0  0  0  0  0
    4.8724   43.8816   52.1693 N   0  0  0  0  0  0  0  0  0  0  0  0
    9.1848   44.8233   52.6886 C   0  0  0  0  0  0  0  0  0  0  0  0
   10.1441   45.8427   52.6883 C   0  0  0  0  0  0  0  0  0  0  0  0
   11.8324   47.7942   52.8743 H   0  0  0  0  0  0  0  0  0  0  0  0
   10.5391   49.0253   52.6784 H   0  0  0  0  0  0  0  0  0  0  0  0
   11.0395   48.5020   54.3223 H   0  0  0  0  0  0  0  0  0  0  0  0
    8.3591   48.2471   54.3028 H   0  0  0  0  0  0  0  0  0  0  0  0
    6.6605   46.4330   54.2926 H   0  0  0  0  0  0  0  0  0  0  0  0
    6.9886   43.3430   54.0296 H   0  0  0  0  0  0  0  0  0  0  0  0
    7.2951   41.2854   49.4309 H   0  0  0  0  0  0  0  0  0  0  0  0
    6.1372   40.1566   50.0319 H   0  0  0  0  0  0  0  0  0  0  0  0
    2.5899   44.2183   50.0064 H   0  0  0  0  0  0  0  0  0  0  0  0
    2.0157   43.0058   51.2012 H   0  0  0  0  0  0  0  0  0  0  0  0
    0.1435   44.0838   51.0762 H   0  0  0  0  0  0  0  0  0  0  0  0
   -1.8555   43.5503   52.4685 H   0  0  0  0  0  0  0  0  0  0  0  0
   -1.7444   43.7949   54.9483 H   0  0  0  0  0  0  0  0  0  0  0  0
    0.3508   44.5978   56.0291 H   0  0  0  0  0  0  0  0  0  0  0  0
    3.6369   45.8722   53.1729 H   0  0  0  0  0  0  0  0  0  0  0  0
    4.4629   46.1786   54.6753 H   0  0  0  0  0  0  0  0  0  0  0  0
    9.4321   43.8523   52.2349 H   0  0  0  0  0  0  0  0  0  0  0  0
   11.1331   45.6627   52.2417 H   0  0  0  0  0  0  0  0  0  0  0  0
  1  2  1  0
  2  3  2  0
  3  4  1  0
  4  5  2  0
  5  6  1  0
  6  7  1  0
  7  8  2  0
  8  9  1  0
  9 10  1  0
  9 11  2  0
 11 12  1  0
 12 13  1  0
 13 14  1  0
 14 15  1  0
 15 16  2  0
 16 17  1  0
 17 18  2  0
 18 19  1  0
 19 20  2  0
 20 21  1  0
 21 22  1  0
 21 23  2  0
 12 24  2  0
  5 25  1  0
 25 26  2  0
 26  2  1  0
 24  7  1  0
 20 15  1  0
  1 27  1  0
  1 28  1  0
  1 29  1  0
  3 30  1  0
  4 31  1  0
  6 32  1  0
 10 33  1  0
 10 34  1  0
 13 35  1  0
 13 36  1  0
 16 37  1  0
 17 38  1  0
 18 39  1  0
 19 40  1  0
 22 41  1  0
 22 42  1  0
 25 43  1  0
 26 44  1  0
M  END
>  <meeko>  (3) 
{"is_sidechain": false}

>  <CID>  (3) 
Z91661383

>  <pose_index>  (3) 
3

>  <docking_score>  (3) 
-8.912

>  <rmsd_to_best_selected>  (3) 
1.6828495349411758

>  <MWT>  (3) 
350.3819999999997

>  <TPSA>  (3) 
129.04000000000002

>  <logP>  (3) 
2.18372

>  <HBD>  (3) 
3

>  <HBA>  (3) 
7

>  <SMILES>  (3) 
[H]c1c([H])c([H])c(C(=O)N([H])[H])c(OC([H])([H])c2nc(N([H])[H])nc(N([H])c3c([H])c([H])c(C([H])([H])[H])c([H])c3[H])n2)c1[H]

$$$$
Z91661383_pose5
     RDKit          3D

 44 46  0  0  0  0  0  0  0  0999 V2000
   10.4651   48.5176   53.0385 C   0  0  0  0  0  0  0  0  0  0  0  0
    9.6350   47.2687   53.0305 C   0  0  0  0  0  0  0  0  0  0  0  0
    8.3112   47.2948   53.4757 C   0  0  0  0  0  0  0  0  0  0  0  0
    7.5418   46.1237   53.4963 C   0  0  0  0  0  0  0  0  0  0  0  0
    8.0724   44.8985   53.0829 C   0  0  0  0  0  0  0  0  0  0  0  0
    7.3575   43.6945   53.0816 N   0  0  0  0  0  0  0  0  0  0  0  0
    6.3470   43.1648   52.2835 C   0  0  0  0  0  0  0  0  0  0  0  0
    6.7308   42.8030   51.0622 N   0  0  0  0  0  0  0  0  0  0  0  0
    5.7857   42.3147   50.2753 C   0  0  0  0  0  0  0  0  0  0  0  0
    6.1546   41.9258   49.0039 N   0  0  0  0  0  0  0  0  0  0  0  0
    4.5223   42.1391   50.6202 N   0  0  0  0  0  0  0  0  0  0  0  0
    4.2226   42.5258   51.8594 C   0  0  0  0  0  0  0  0  0  0  0  0
    2.7826   42.4151   52.3027 C   0  0  0  0  0  0  0  0  0  0  0  0
    2.6710   42.8212   53.6807 O   0  0  0  0  0  0  0  0  0  0  0  0
    1.5656   43.6051   53.8921 C   0  0  0  0  0  0  0  0  0  0  0  0
    0.2979   43.0167   53.7763 C   0  0  0  0  0  0  0  0  0  0  0  0
   -0.8526   43.7813   53.9710 C   0  0  0  0  0  0  0  0  0  0  0  0
   -0.7417   45.1377   54.2646 C   0  0  0  0  0  0  0  0  0  0  0  0
    0.5192   45.7330   54.3502 C   0  0  0  0  0  0  0  0  0  0  0  0
    1.6873   44.9784   54.1501 C   0  0  0  0  0  0  0  0  0  0  0  0
    2.9868   45.7084   54.2378 C   0  0  0  0  0  0  0  0  0  0  0  0
    3.7287   45.8457   53.0991 N   0  0  0  0  0  0  0  0  0  0  0  0
    3.3790   46.1987   55.2904 O   0  0  0  0  0  0  0  0  0  0  0  0
    5.0999   43.0378   52.7243 N   0  0  0  0  0  0  0  0  0  0  0  0
    9.4099   44.8833   52.6570 C   0  0  0  0  0  0  0  0  0  0  0  0
   10.1838   46.0493   52.6331 C   0  0  0  0  0  0  0  0  0  0  0  0
    9.8065   49.3960   52.9707 H   0  0  0  0  0  0  0  0  0  0  0  0
   11.0459   48.5659   53.9715 H   0  0  0  0  0  0  0  0  0  0  0  0
   11.1518   48.5070   52.1793 H   0  0  0  0  0  0  0  0  0  0  0  0
    7.8685   48.2435   53.8132 H   0  0  0  0  0  0  0  0  0  0  0  0
    6.4995   46.1696   53.8447 H   0  0  0  0  0  0  0  0  0  0  0  0
    7.6452   43.0008   53.7563 H   0  0  0  0  0  0  0  0  0  0  0  0
    5.7196   41.0487   48.7564 H   0  0  0  0  0  0  0  0  0  0  0  0
    6.0602   42.6911   48.3521 H   0  0  0  0  0  0  0  0  0  0  0  0
    2.1553   43.0666   51.6766 H   0  0  0  0  0  0  0  0  0  0  0  0
    2.4467   41.3728   52.1995 H   0  0  0  0  0  0  0  0  0  0  0  0
    0.2104   41.9480   53.5310 H   0  0  0  0  0  0  0  0  0  0  0  0
   -1.8452   43.3136   53.8928 H   0  0  0  0  0  0  0  0  0  0  0  0
   -1.6469   45.7407   54.4291 H   0  0  0  0  0  0  0  0  0  0  0  0
    0.5986   46.8064   54.5771 H   0  0  0  0  0  0  0  0  0  0  0  0
    3.3402   45.6115   52.1928 H   0  0  0  0  0  0  0  0  0  0  0  0
    4.5322   46.4560   53.1417 H   0  0  0  0  0  0  0  0  0  0  0  0
    9.8603   43.9329   52.3347 H   0  0  0  0  0  0  0  0  0  0  0  0
   11.2308   46.0039   52.2990 H   0  0  0  0  0  0  0  0  0  0  0  0
  1  2  1  0
  2  3  2  0
  3  4  1  0
  4  5  2  0
  5  6  1  0
  6  7  1  0
  7  8  2  0
  8  9  1  0
  9 10  1  0
  9 11  2  0
 11 12  1  0
 12 13  1  0
 13 14  1  0
 14 15  1  0
 15 16  2  0
 16 17  1  0
 17 18  2  0
 18 19  1  0
 19 20  2  0
 20 21  1  0
 21 22  1  0
 21 23  2  0
 12 24  2  0
  5 25  1  0
 25 26  2  0
 26  2  1  0
 24  7  1  0
 20 15  1  0
  1 27  1  0
  1 28  1  0
  1 29  1  0
  3 30  1  0
  4 31  1  0
  6 32  1  0
 10 33  1  0
 10 34  1  0
 13 35  1  0
 13 36  1  0
 16 37  1  0
 17 38  1  0
 18 39  1  0
 19 40  1  0
 22 41  1  0
 22 42  1  0
 25 43  1  0
 26 44  1  0
M  END
>  <meeko>  (4) 
{"is_sidechain": false}

>  <CID>  (4) 
Z91661383

>  <pose_index>  (4) 
5

>  <docking_score>  (4) 
-8.633

>  <rmsd_to_best_selected>  (4) 
1.543220706335941

>  <MWT>  (4) 
350.3819999999997

>  <TPSA>  (4) 
129.04000000000002

>  <logP>  (4) 
2.18372

>  <HBD>  (4) 
3

>  <HBA>  (4) 
7

>  <SMILES>  (4) 
[H]c1c([H])c([H])c(C(=O)N([H])[H])c(OC([H])([H])c2nc(N([H])[H])nc(N([H])c3c([H])c([H])c(C([H])([H])[H])c([H])c3[H])n2)c1[H]

$$$$
Z91661383_pose6
     RDKit          3D

 44 46  0  0  0  0  0  0  0  0999 V2000
    9.3969   48.6330   53.8747 C   0  0  0  0  0  0  0  0  0  0  0  0
    8.8538   47.2737   53.5487 C   0  0  0  0  0  0  0  0  0  0  0  0
    7.5143   46.9654   53.8007 C   0  0  0  0  0  0  0  0  0  0  0  0
    7.0109   45.6873   53.5217 C   0  0  0  0  0  0  0  0  0  0  0  0
    7.8275   44.6848   52.9942 C   0  0  0  0  0  0  0  0  0  0  0  0
    7.3863   43.3895   52.6967 N   0  0  0  0  0  0  0  0  0  0  0  0
    6.3170   42.8688   51.9720 C   0  0  0  0  0  0  0  0  0  0  0  0
    6.6425   42.3495   50.7909 N   0  0  0  0  0  0  0  0  0  0  0  0
    5.6417   41.8661   50.0724 C   0  0  0  0  0  0  0  0  0  0  0  0
    5.9485   41.3166   48.8449 N   0  0  0  0  0  0  0  0  0  0  0  0
    4.3763   41.8370   50.4494 N   0  0  0  0  0  0  0  0  0  0  0  0
    4.1373   42.3759   51.6457 C   0  0  0  0  0  0  0  0  0  0  0  0
    2.7039   42.4368   52.1165 C   0  0  0  0  0  0  0  0  0  0  0  0
    2.1834   43.7639   51.9029 O   0  0  0  0  0  0  0  0  0  0  0  0
    1.6694   44.3000   53.0558 C   0  0  0  0  0  0  0  0  0  0  0  0
    0.5233   43.7153   53.6111 C   0  0  0  0  0  0  0  0  0  0  0  0
   -0.0381   44.2366   54.7771 C   0  0  0  0  0  0  0  0  0  0  0  0
    0.5327   45.3533   55.3819 C   0  0  0  0  0  0  0  0  0  0  0  0
    1.6566   45.9571   54.8118 C   0  0  0  0  0  0  0  0  0  0  0  0
    2.2296   45.4483   53.6348 C   0  0  0  0  0  0  0  0  0  0  0  0
    3.4140   46.1761   53.0902 C   0  0  0  0  0  0  0  0  0  0  0  0
    3.9355   45.7603   51.8994 N   0  0  0  0  0  0  0  0  0  0  0  0
    3.9014   47.1386   53.6747 O   0  0  0  0  0  0  0  0  0  0  0  0
    5.0748   42.8968   52.4399 N   0  0  0  0  0  0  0  0  0  0  0  0
    9.1770   45.0015   52.7647 C   0  0  0  0  0  0  0  0  0  0  0  0
    9.6865   46.2748   53.0394 C   0  0  0  0  0  0  0  0  0  0  0  0
    9.6458   48.6814   54.9451 H   0  0  0  0  0  0  0  0  0  0  0  0
   10.3027   48.8185   53.2788 H   0  0  0  0  0  0  0  0  0  0  0  0
    8.6405   49.3962   53.6393 H   0  0  0  0  0  0  0  0  0  0  0  0
    6.8486   47.7331   54.2220 H   0  0  0  0  0  0  0  0  0  0  0  0
    5.9515   45.4697   53.7224 H   0  0  0  0  0  0  0  0  0  0  0  0
    7.9771   42.6306   53.0066 H   0  0  0  0  0  0  0  0  0  0  0  0
    6.7797   41.7401   48.4582 H   0  0  0  0  0  0  0  0  0  0  0  0
    5.9183   40.3083   48.8846 H   0  0  0  0  0  0  0  0  0  0  0  0
    2.1011   41.7112   51.5507 H   0  0  0  0  0  0  0  0  0  0  0  0
    2.6596   42.1940   53.1884 H   0  0  0  0  0  0  0  0  0  0  0  0
    0.0643   42.8415   53.1256 H   0  0  0  0  0  0  0  0  0  0  0  0
   -0.9297   43.7664   55.2176 H   0  0  0  0  0  0  0  0  0  0  0  0
    0.0993   45.7599   56.3076 H   0  0  0  0  0  0  0  0  0  0  0  0
    2.0985   46.8429   55.2914 H   0  0  0  0  0  0  0  0  0  0  0  0
    3.4409   45.0937   51.3179 H   0  0  0  0  0  0  0  0  0  0  0  0
    4.6441   46.3425   51.4763 H   0  0  0  0  0  0  0  0  0  0  0  0
    9.8484   44.2301   52.3595 H   0  0  0  0  0  0  0  0  0  0  0  0
   10.7489   46.4907   52.8533 H   0  0  0  0  0  0  0  0  0  0  0  0
  1  2  1  0
  2  3  2  0
  3  4  1  0
  4  5  2  0
  5  6  1  0
  6  7  1  0
  7  8  2  0
  8  9  1  0
  9 10  1  0
  9 11  2  0
 11 12  1  0
 12 13  1  0
 13 14  1  0
 14 15  1  0
 15 16  2  0
 16 17  1  0
 17 18  2  0
 18 19  1  0
 19 20  2  0
 20 21  1  0
 21 22  1  0
 21 23  2  0
 12 24  2  0
  5 25  1  0
 25 26  2  0
 26  2  1  0
 24  7  1  0
 20 15  1  0
  1 27  1  0
  1 28  1  0
  1 29  1  0
  3 30  1  0
  4 31  1  0
  6 32  1  0
 10 33  1  0
 10 34  1  0
 13 35  1  0
 13 36  1  0
 16 37  1  0
 17 38  1  0
 18 39  1  0
 19 40  1  0
 22 41  1  0
 22 42  1  0
 25 43  1  0
 26 44  1  0
M  END
>  <meeko>  (5) 
{"is_sidechain": false}

>  <CID>  (5) 
Z91661383

>  <pose_index>  (5) 
6

>  <docking_score>  (5) 
-8.593

>  <rmsd_to_best_selected>  (5) 
1.644094614973627

>  <MWT>  (5) 
350.3819999999997

>  <TPSA>  (5) 
129.04000000000002

>  <logP>  (5) 
2.18372

>  <HBD>  (5) 
3

>  <HBA>  (5) 
7

>  <SMILES>  (5) 
[H]c1c([H])c([H])c(C(=O)N([H])[H])c(OC([H])([H])c2nc(N([H])[H])nc(N([H])c3c([H])c([H])c(C([H])([H])[H])c([H])c3[H])n2)c1[H]

$$$$
Z91661383_pose10
     RDKit          3D

 44 46  0  0  0  0  0  0  0  0999 V2000
   10.3825   46.8074   55.0695 C   0  0  0  0  0  0  0  0  0  0  0  0
    9.5423   45.9484   54.1722 C   0  0  0  0  0  0  0  0  0  0  0  0
    9.3552   46.2939   52.8317 C   0  0  0  0  0  0  0  0  0  0  0  0
    8.5480   45.5086   51.9982 C   0  0  0  0  0  0  0  0  0  0  0  0
    7.9018   44.3664   52.4784 C   0  0  0  0  0  0  0  0  0  0  0  0
    7.0824   43.5425   51.6983 N   0  0  0  0  0  0  0  0  0  0  0  0
    5.8980   43.7358   50.9920 C   0  0  0  0  0  0  0  0  0  0  0  0
    5.8329   43.1019   49.8240 N   0  0  0  0  0  0  0  0  0  0  0  0
    4.7258   43.2863   49.1234 C   0  0  0  0  0  0  0  0  0  0  0  0
    4.6276   42.6372   47.9094 N   0  0  0  0  0  0  0  0  0  0  0  0
    3.6932   44.0141   49.5058 N   0  0  0  0  0  0  0  0  0  0  0  0
    3.8400   44.6146   50.6876 C   0  0  0  0  0  0  0  0  0  0  0  0
    2.7249   45.5163   51.1615 C   0  0  0  0  0  0  0  0  0  0  0  0
    2.9007   45.8022   52.5642 O   0  0  0  0  0  0  0  0  0  0  0  0
    1.9779   45.1458   53.3362 C   0  0  0  0  0  0  0  0  0  0  0  0
    0.6713   45.0133   52.8473 C   0  0  0  0  0  0  0  0  0  0  0  0
   -0.3025   44.3629   53.6062 C   0  0  0  0  0  0  0  0  0  0  0  0
    0.0219   43.8579   54.8623 C   0  0  0  0  0  0  0  0  0  0  0  0
    1.3165   44.0158   55.3657 C   0  0  0  0  0  0  0  0  0  0  0  0
    2.3050   44.6744   54.6165 C   0  0  0  0  0  0  0  0  0  0  0  0
    3.6511   44.8146   55.2484 C   0  0  0  0  0  0  0  0  0  0  0  0
    4.7526   44.7319   54.4462 N   0  0  0  0  0  0  0  0  0  0  0  0
    3.7777   45.0239   56.4503 O   0  0  0  0  0  0  0  0  0  0  0  0
    4.9189   44.4993   51.4636 N   0  0  0  0  0  0  0  0  0  0  0  0
    8.0828   44.0411   53.8322 C   0  0  0  0  0  0  0  0  0  0  0  0
    8.8881   44.8202   54.6710 C   0  0  0  0  0  0  0  0  0  0  0  0
   10.9202   47.5528   54.4651 H   0  0  0  0  0  0  0  0  0  0  0  0
    9.7357   47.3217   55.7956 H   0  0  0  0  0  0  0  0  0  0  0  0
   11.1077   46.1779   55.6058 H   0  0  0  0  0  0  0  0  0  0  0  0
    9.8462   47.1910   52.4266 H   0  0  0  0  0  0  0  0  0  0  0  0
    8.4204   45.7971   50.9444 H   0  0  0  0  0  0  0  0  0  0  0  0
    7.4161   42.6028   51.5342 H   0  0  0  0  0  0  0  0  0  0  0  0
    3.7203   42.2064   47.8044 H   0  0  0  0  0  0  0  0  0  0  0  0
    4.9494   43.2292   47.1578 H   0  0  0  0  0  0  0  0  0  0  0  0
    2.7457   46.4561   50.5903 H   0  0  0  0  0  0  0  0  0  0  0  0
    1.7579   45.0150   51.0080 H   0  0  0  0  0  0  0  0  0  0  0  0
    0.4119   45.4241   51.8604 H   0  0  0  0  0  0  0  0  0  0  0  0
   -1.3236   44.2495   53.2131 H   0  0  0  0  0  0  0  0  0  0  0  0
   -0.7401   43.3346   55.4585 H   0  0  0  0  0  0  0  0  0  0  0  0
    1.5640   43.6192   56.3615 H   0  0  0  0  0  0  0  0  0  0  0  0
    4.6650   44.7433   53.4372 H   0  0  0  0  0  0  0  0  0  0  0  0
    5.6440   44.9644   54.8607 H   0  0  0  0  0  0  0  0  0  0  0  0
    7.5799   43.1533   54.2433 H   0  0  0  0  0  0  0  0  0  0  0  0
    9.0062   44.5423   55.7287 H   0  0  0  0  0  0  0  0  0  0  0  0
  1  2  1  0
  2  3  2  0
  3  4  1  0
  4  5  2  0
  5  6  1  0
  6  7  1  0
  7  8  2  0
  8  9  1  0
  9 10  1  0
  9 11  2  0
 11 12  1  0
 12 13  1  0
 13 14  1  0
 14 15  1  0
 15 16  2  0
 16 17  1  0
 17 18  2  0
 18 19  1  0
 19 20  2  0
 20 21  1  0
 21 22  1  0
 21 23  2  0
 12 24  2  0
  5 25  1  0
 25 26  2  0
 26  2  1  0
 24  7  1  0
 20 15  1  0
  1 27  1  0
  1 28  1  0
  1 29  1  0
  3 30  1  0
  4 31  1  0
  6 32  1  0
 10 33  1  0
 10 34  1  0
 13 35  1  0
 13 36  1  0
 16 37  1  0
 17 38  1  0
 18 39  1  0
 19 40  1  0
 22 41  1  0
 22 42  1  0
 25 43  1  0
 26 44  1  0
M  END
>  <meeko>  (6) 
{"is_sidechain": false}

>  <CID>  (6) 
Z91661383

>  <pose_index>  (6) 
10

>  <docking_score>  (6) 
-8.166

>  <rmsd_to_best_selected>  (6) 
1.6366540907787233

>  <MWT>  (6) 
350.3819999999997

>  <TPSA>  (6) 
129.04000000000002

>  <logP>  (6) 
2.18372

>  <HBD>  (6) 
3

>  <HBA>  (6) 
7

>  <SMILES>  (6) 
[H]c1c([H])c([H])c(C(=O)N([H])[H])c(OC([H])([H])c2nc(N([H])[H])nc(N([H])c3c([H])c([H])c(C([H])([H])[H])c([H])c3[H])n2)c1[H]

$$$$
