Z94803042_pose1
     RDKit          3D

 42 45  0  0  0  0  0  0  0  0999 V2000
   -1.9650   44.4160   54.7140 N   0  0  0  0  0  0  0  0  0  0  0  0
   -0.8500   43.7900   54.2260 C   0  0  0  0  0  0  0  0  0  0  0  0
   -0.8940   42.6170   53.8820 O   0  0  0  0  0  0  0  0  0  0  0  0
    0.4100   44.5790   54.1770 C   0  0  0  0  0  0  0  0  0  0  0  0
    1.2490   44.5660   55.2920 C   0  0  0  0  0  0  0  0  0  0  0  0
    2.4440   45.2970   55.2900 C   0  0  0  0  0  0  0  0  0  0  0  0
    2.8360   46.0440   54.1750 C   0  0  0  0  0  0  0  0  0  0  0  0
    4.0070   46.8070   54.1170 N   0  0  0  0  0  0  0  0  0  0  0  0
    5.2830   46.5810   53.6070 C   0  0  0  0  0  0  0  0  0  0  0  0
    5.4930   45.7880   52.5560 N   0  0  0  0  0  0  0  0  0  0  0  0
    6.7630   45.6260   52.1250 C   0  0  0  0  0  0  0  0  0  0  0  0
    6.8720   44.7590   50.9410 C   0  0  0  0  0  0  0  0  0  0  0  0
    7.9060   44.9280   50.0030 C   0  0  0  0  0  0  0  0  0  0  0  0
    7.9990   44.1030   48.8800 C   0  0  0  0  0  0  0  0  0  0  0  0
    7.0540   43.1000   48.6720 C   0  0  0  0  0  0  0  0  0  0  0  0
    6.0130   42.9270   49.5820 C   0  0  0  0  0  0  0  0  0  0  0  0
    5.9210   43.7530   50.7040 C   0  0  0  0  0  0  0  0  0  0  0  0
    7.8600   46.2270   52.7540 C   0  0  0  0  0  0  0  0  0  0  0  0
    9.2240   46.0700   52.3880 C   0  0  0  0  0  0  0  0  0  0  0  0
   10.2310   46.7240   53.0910 C   0  0  0  0  0  0  0  0  0  0  0  0
    9.8930   47.5350   54.1650 C   0  0  0  0  0  0  0  0  0  0  0  0
    8.5510   47.6800   54.5280 C   0  0  0  0  0  0  0  0  0  0  0  0
    7.5280   47.0350   53.8440 C   0  0  0  0  0  0  0  0  0  0  0  0
    6.2680   47.2130   54.2610 N   0  0  0  0  0  0  0  0  0  0  0  0
    1.9860   46.0360   53.0560 C   0  0  0  0  0  0  0  0  0  0  0  0
    0.7870   45.3120   53.0490 C   0  0  0  0  0  0  0  0  0  0  0  0
   -1.9020   45.2510   55.2780 H   0  0  0  0  0  0  0  0  0  0  0  0
   -2.7680   43.8170   54.8640 H   0  0  0  0  0  0  0  0  0  0  0  0
    0.9701   43.9777   56.1786 H   0  0  0  0  0  0  0  0  0  0  0  0
    3.0863   45.2830   56.1829 H   0  0  0  0  0  0  0  0  0  0  0  0
    3.9610   47.7520   54.4650 H   0  0  0  0  0  0  0  0  0  0  0  0
    8.6523   45.7215   50.1560 H   0  0  0  0  0  0  0  0  0  0  0  0
    8.8181   44.2448   48.1596 H   0  0  0  0  0  0  0  0  0  0  0  0
    7.1298   42.4459   47.7908 H   0  0  0  0  0  0  0  0  0  0  0  0
    5.2633   42.1393   49.4164 H   0  0  0  0  0  0  0  0  0  0  0  0
    5.0914   43.6138   51.4128 H   0  0  0  0  0  0  0  0  0  0  0  0
    9.4872   45.4232   51.5381 H   0  0  0  0  0  0  0  0  0  0  0  0
   11.2840   46.5994   52.7984 H   0  0  0  0  0  0  0  0  0  0  0  0
   10.6776   48.0614   54.7282 H   0  0  0  0  0  0  0  0  0  0  0  0
    8.2968   48.3250   55.3820 H   0  0  0  0  0  0  0  0  0  0  0  0
    2.2694   46.6128   52.1632 H   0  0  0  0  0  0  0  0  0  0  0  0
    0.1434   45.3205   52.1570 H   0  0  0  0  0  0  0  0  0  0  0  0
  1  2  1  0
  2  3  2  0
  2  4  1  0
  4  5  2  0
  5  6  1  0
  6  7  2  0
  7  8  1  0
  8  9  1  0
  9 10  2  0
 10 11  1  0
 11 12  1  0
 12 13  2  0
 13 14  1  0
 14 15  2  0
 15 16  1  0
 16 17  2  0
 11 18  2  0
 18 19  1  0
 19 20  2  0
 20 21  1  0
 21 22  2  0
 22 23  1  0
 23 24  2  0
  7 25  1  0
 25 26  2  0
 26  4  1  0
 24  9  1  0
 17 12  1  0
 23 18  1  0
  1 27  1  0
  1 28  1  0
  5 29  1  0
  6 30  1  0
  8 31  1  0
 13 32  1  0
 14 33  1  0
 15 34  1  0
 16 35  1  0
 17 36  1  0
 19 37  1  0
 20 38  1  0
 21 39  1  0
 22 40  1  0
 25 41  1  0
 26 42  1  0
M  END
>  <meeko>  (1) 
{"is_sidechain": false}

>  <CID>  (1) 
Z94803042

>  <pose_index>  (1) 
1

>  <docking_score>  (1) 
-10.201

>  <rmsd_to_best_selected>  (1) 
0.0

>  <MWT>  (1) 
340.38599999999974

>  <TPSA>  (1) 
80.9

>  <logP>  (1) 
4.139300000000002

>  <HBD>  (1) 
2

>  <HBA>  (1) 
4

>  <SMILES>  (1) 
[H]c1c([H])c([H])c(-c2nc(N([H])c3c([H])c([H])c(C(=O)N([H])[H])c([H])c3[H])nc3c([H])c([H])c([H])c([H])c23)c([H])c1[H]

$$$$
Z94803042_pose2
     RDKit          3D

 42 45  0  0  0  0  0  0  0  0999 V2000
   -1.2953   43.1911   55.0001 N   0  0  0  0  0  0  0  0  0  0  0  0
   -0.9805   44.1189   54.0453 C   0  0  0  0  0  0  0  0  0  0  0  0
   -1.7461   44.3440   53.1179 O   0  0  0  0  0  0  0  0  0  0  0  0
    0.3382   44.7976   54.1599 C   0  0  0  0  0  0  0  0  0  0  0  0
    1.0913   44.9924   53.0004 C   0  0  0  0  0  0  0  0  0  0  0  0
    2.3404   45.6238   53.0625 C   0  0  0  0  0  0  0  0  0  0  0  0
    2.8581   46.0885   54.2756 C   0  0  0  0  0  0  0  0  0  0  0  0
    4.1040   46.7107   54.4061 N   0  0  0  0  0  0  0  0  0  0  0  0
    5.3385   46.5442   53.7832 C   0  0  0  0  0  0  0  0  0  0  0  0
    5.4876   45.7654   52.7108 N   0  0  0  0  0  0  0  0  0  0  0  0
    6.7200   45.6606   52.1678 C   0  0  0  0  0  0  0  0  0  0  0  0
    6.7606   44.8044   50.9723 C   0  0  0  0  0  0  0  0  0  0  0  0
    5.8048   44.9279   49.9494 C   0  0  0  0  0  0  0  0  0  0  0  0
    5.8502   44.1072   48.8199 C   0  0  0  0  0  0  0  0  0  0  0  0
    6.8487   43.1436   48.6989 C   0  0  0  0  0  0  0  0  0  0  0  0
    7.7958   42.9940   49.7100 C   0  0  0  0  0  0  0  0  0  0  0  0
    7.7486   43.8143   50.8383 C   0  0  0  0  0  0  0  0  0  0  0  0
    7.8416   46.3080   52.7010 C   0  0  0  0  0  0  0  0  0  0  0  0
    9.1730   46.2130   52.2137 C   0  0  0  0  0  0  0  0  0  0  0  0
   10.2090   46.9092   52.8293 C   0  0  0  0  0  0  0  0  0  0  0  0
    9.9337   47.6998   53.9344 C   0  0  0  0  0  0  0  0  0  0  0  0
    8.6242   47.7837   54.4180 C   0  0  0  0  0  0  0  0  0  0  0  0
    7.5732   47.0960   53.8233 C   0  0  0  0  0  0  0  0  0  0  0  0
    6.3491   47.2159   54.3517 N   0  0  0  0  0  0  0  0  0  0  0  0
    2.0828   45.8950   55.4306 C   0  0  0  0  0  0  0  0  0  0  0  0
    0.8347   45.2612   55.3797 C   0  0  0  0  0  0  0  0  0  0  0  0
   -0.5882   42.7656   55.5812 H   0  0  0  0  0  0  0  0  0  0  0  0
   -2.1315   42.6491   54.8196 H   0  0  0  0  0  0  0  0  0  0  0  0
    0.7011   44.6478   52.0314 H   0  0  0  0  0  0  0  0  0  0  0  0
    2.9247   45.7565   52.1400 H   0  0  0  0  0  0  0  0  0  0  0  0
    4.1677   47.4879   55.0463 H   0  0  0  0  0  0  0  0  0  0  0  0
    5.0090   45.6820   50.0395 H   0  0  0  0  0  0  0  0  0  0  0  0
    5.0974   44.2218   48.0261 H   0  0  0  0  0  0  0  0  0  0  0  0
    6.8896   42.5018   47.8065 H   0  0  0  0  0  0  0  0  0  0  0  0
    8.5810   42.2291   49.6190 H   0  0  0  0  0  0  0  0  0  0  0  0
    8.4960   43.6836   51.6347 H   0  0  0  0  0  0  0  0  0  0  0  0
    9.3876   45.5814   51.3390 H   0  0  0  0  0  0  0  0  0  0  0  0
   11.2361   46.8330   52.4429 H   0  0  0  0  0  0  0  0  0  0  0  0
   10.7419   48.2587   54.4288 H   0  0  0  0  0  0  0  0  0  0  0  0
    8.4198   48.4135   55.2963 H   0  0  0  0  0  0  0  0  0  0  0  0
    2.4652   46.2499   56.3991 H   0  0  0  0  0  0  0  0  0  0  0  0
    0.2463   45.1290   56.2996 H   0  0  0  0  0  0  0  0  0  0  0  0
  1  2  1  0
  2  3  2  0
  2  4  1  0
  4  5  2  0
  5  6  1  0
  6  7  2  0
  7  8  1  0
  8  9  1  0
  9 10  2  0
 10 11  1  0
 11 12  1  0
 12 13  2  0
 13 14  1  0
 14 15  2  0
 15 16  1  0
 16 17  2  0
 11 18  2  0
 18 19  1  0
 19 20  2  0
 20 21  1  0
 21 22  2  0
 22 23  1  0
 23 24  2  0
  7 25  1  0
 25 26  2  0
 26  4  1  0
 24  9  1  0
 17 12  1  0
 23 18  1  0
  1 27  1  0
  1 28  1  0
  5 29  1  0
  6 30  1  0
  8 31  1  0
 13 32  1  0
 14 33  1  0
 15 34  1  0
 16 35  1  0
 17 36  1  0
 19 37  1  0
 20 38  1  0
 21 39  1  0
 22 40  1  0
 25 41  1  0
 26 42  1  0
M  END
>  <meeko>  (2) 
{"is_sidechain": false}

>  <CID>  (2) 
Z94803042

>  <pose_index>  (2) 
2

>  <docking_score>  (2) 
-9.878

>  <rmsd_to_best_selected>  (2) 
1.1708260088139246

>  <MWT>  (2) 
340.38599999999974

>  <TPSA>  (2) 
80.9

>  <logP>  (2) 
4.139300000000002

>  <HBD>  (2) 
2

>  <HBA>  (2) 
4

>  <SMILES>  (2) 
[H]c1c([H])c([H])c(-c2nc(N([H])c3c([H])c([H])c(C(=O)N([H])[H])c([H])c3[H])nc3c([H])c([H])c([H])c([H])c23)c([H])c1[H]

$$$$
Z94803042_pose3
     RDKit          3D

 42 45  0  0  0  0  0  0  0  0999 V2000
   -1.9223   44.3801   54.1992 N   0  0  0  0  0  0  0  0  0  0  0  0
   -0.7795   43.6286   54.2352 C   0  0  0  0  0  0  0  0  0  0  0  0
   -0.8345   42.4067   54.2104 O   0  0  0  0  0  0  0  0  0  0  0  0
    0.5135   44.3565   54.3517 C   0  0  0  0  0  0  0  0  0  0  0  0
    1.0044   45.0277   53.2300 C   0  0  0  0  0  0  0  0  0  0  0  0
    2.2196   45.7214   53.2929 C   0  0  0  0  0  0  0  0  0  0  0  0
    2.9635   45.7745   54.4756 C   0  0  0  0  0  0  0  0  0  0  0  0
    4.1900   46.4360   54.5987 N   0  0  0  0  0  0  0  0  0  0  0  0
    5.3851   46.3967   53.8862 C   0  0  0  0  0  0  0  0  0  0  0  0
    5.5513   45.5976   52.8319 N   0  0  0  0  0  0  0  0  0  0  0  0
    6.7430   45.6223   52.1963 C   0  0  0  0  0  0  0  0  0  0  0  0
    6.8021   44.7278   51.0288 C   0  0  0  0  0  0  0  0  0  0  0  0
    7.2719   43.4078   51.1407 C   0  0  0  0  0  0  0  0  0  0  0  0
    7.3275   42.5683   50.0262 C   0  0  0  0  0  0  0  0  0  0  0  0
    6.9232   43.0387   48.7781 C   0  0  0  0  0  0  0  0  0  0  0  0
    6.4697   44.3502   48.6439 C   0  0  0  0  0  0  0  0  0  0  0  0
    6.4154   45.1877   49.7590 C   0  0  0  0  0  0  0  0  0  0  0  0
    7.8104   46.4244   52.6179 C   0  0  0  0  0  0  0  0  0  0  0  0
    9.1036   46.4721   52.0300 C   0  0  0  0  0  0  0  0  0  0  0  0
   10.0873   47.3159   52.5388 C   0  0  0  0  0  0  0  0  0  0  0  0
    9.7976   48.1124   53.6371 C   0  0  0  0  0  0  0  0  0  0  0  0
    8.5277   48.0552   54.2188 C   0  0  0  0  0  0  0  0  0  0  0  0
    7.5298   47.2195   53.7317 C   0  0  0  0  0  0  0  0  0  0  0  0
    6.3432   47.2101   54.3508 N   0  0  0  0  0  0  0  0  0  0  0  0
    2.4494   45.1037   55.5983 C   0  0  0  0  0  0  0  0  0  0  0  0
    1.2380   44.4044   55.5446 C   0  0  0  0  0  0  0  0  0  0  0  0
   -1.9397   45.3367   54.5198 H   0  0  0  0  0  0  0  0  0  0  0  0
   -2.7869   43.8561   54.2602 H   0  0  0  0  0  0  0  0  0  0  0  0
    0.4329   45.0115   52.2903 H   0  0  0  0  0  0  0  0  0  0  0  0
    2.5957   46.2340   52.3952 H   0  0  0  0  0  0  0  0  0  0  0  0
    4.2659   47.1401   55.3175 H   0  0  0  0  0  0  0  0  0  0  0  0
    7.6006   43.0306   52.1204 H   0  0  0  0  0  0  0  0  0  0  0  0
    7.6904   41.5355   50.1334 H   0  0  0  0  0  0  0  0  0  0  0  0
    6.9619   42.3765   47.9006 H   0  0  0  0  0  0  0  0  0  0  0  0
    6.1547   44.7251   47.6589 H   0  0  0  0  0  0  0  0  0  0  0  0
    6.0643   46.2236   49.6419 H   0  0  0  0  0  0  0  0  0  0  0  0
    9.3299   45.8347   51.1626 H   0  0  0  0  0  0  0  0  0  0  0  0
   11.0839   47.3507   52.0746 H   0  0  0  0  0  0  0  0  0  0  0  0
   10.5638   48.7860   54.0485 H   0  0  0  0  0  0  0  0  0  0  0  0
    8.3115   48.6918   55.0895 H   0  0  0  0  0  0  0  0  0  0  0  0
    3.0128   45.1288   56.5427 H   0  0  0  0  0  0  0  0  0  0  0  0
    0.8571   43.8932   56.4410 H   0  0  0  0  0  0  0  0  0  0  0  0
  1  2  1  0
  2  3  2  0
  2  4  1  0
  4  5  2  0
  5  6  1  0
  6  7  2  0
  7  8  1  0
  8  9  1  0
  9 10  2  0
 10 11  1  0
 11 12  1  0
 12 13  2  0
 13 14  1  0
 14 15  2  0
 15 16  1  0
 16 17  2  0
 11 18  2  0
 18 19  1  0
 19 20  2  0
 20 21  1  0
 21 22  2  0
 22 23  1  0
 23 24  2  0
  7 25  1  0
 25 26  2  0
 26  4  1  0
 24  9  1  0
 17 12  1  0
 23 18  1  0
  1 27  1  0
  1 28  1  0
  5 29  1  0
  6 30  1  0
  8 31  1  0
 13 32  1  0
 14 33  1  0
 15 34  1  0
 16 35  1  0
 17 36  1  0
 19 37  1  0
 20 38  1  0
 21 39  1  0
 22 40  1  0
 25 41  1  0
 26 42  1  0
M  END
>  <meeko>  (3) 
{"is_sidechain": false}

>  <CID>  (3) 
Z94803042

>  <pose_index>  (3) 
3

>  <docking_score>  (3) 
-9.746

>  <rmsd_to_best_selected>  (3) 
0.9937706290887024

>  <MWT>  (3) 
340.38599999999974

>  <TPSA>  (3) 
80.9

>  <logP>  (3) 
4.139300000000002

>  <HBD>  (3) 
2

>  <HBA>  (3) 
4

>  <SMILES>  (3) 
[H]c1c([H])c([H])c(-c2nc(N([H])c3c([H])c([H])c(C(=O)N([H])[H])c([H])c3[H])nc3c([H])c([H])c([H])c([H])c23)c([H])c1[H]

$$$$
Z94803042_pose4
     RDKit          3D

 42 45  0  0  0  0  0  0  0  0999 V2000
   -1.5089   43.6060   55.4132 N   0  0  0  0  0  0  0  0  0  0  0  0
   -0.7211   43.5444   54.2954 C   0  0  0  0  0  0  0  0  0  0  0  0
   -1.0019   42.7882   53.3766 O   0  0  0  0  0  0  0  0  0  0  0  0
    0.4988   44.3954   54.2711 C   0  0  0  0  0  0  0  0  0  0  0  0
    0.7314   45.1962   53.1506 C   0  0  0  0  0  0  0  0  0  0  0  0
    1.8695   46.0097   53.0838 C   0  0  0  0  0  0  0  0  0  0  0  0
    2.7918   46.0546   54.1339 C   0  0  0  0  0  0  0  0  0  0  0  0
    3.9538   46.8329   54.1203 N   0  0  0  0  0  0  0  0  0  0  0  0
    5.2189   46.6710   53.5612 C   0  0  0  0  0  0  0  0  0  0  0  0
    5.4428   45.8251   52.5551 N   0  0  0  0  0  0  0  0  0  0  0  0
    6.6996   45.7303   52.0707 C   0  0  0  0  0  0  0  0  0  0  0  0
    6.8231   44.7943   50.9422 C   0  0  0  0  0  0  0  0  0  0  0  0
    7.7316   45.0256   49.8946 C   0  0  0  0  0  0  0  0  0  0  0  0
    7.8389   44.1331   48.8269 C   0  0  0  0  0  0  0  0  0  0  0  0
    7.0316   42.9979   48.7830 C   0  0  0  0  0  0  0  0  0  0  0  0
    6.1122   42.7600   49.8035 C   0  0  0  0  0  0  0  0  0  0  0  0
    6.0070   43.6538   50.8708 C   0  0  0  0  0  0  0  0  0  0  0  0
    7.7736   46.4575   52.6005 C   0  0  0  0  0  0  0  0  0  0  0  0
    9.1268   46.3795   52.1764 C   0  0  0  0  0  0  0  0  0  0  0  0
   10.1112   47.1565   52.7817 C   0  0  0  0  0  0  0  0  0  0  0  0
    9.7590   48.0124   53.8154 C   0  0  0  0  0  0  0  0  0  0  0  0
    8.4285   48.0788   54.2377 C   0  0  0  0  0  0  0  0  0  0  0  0
    7.4285   47.3109   53.6521 C   0  0  0  0  0  0  0  0  0  0  0  0
    6.1801   47.4200   54.1206 N   0  0  0  0  0  0  0  0  0  0  0  0
    2.5366   45.2527   55.2579 C   0  0  0  0  0  0  0  0  0  0  0  0
    1.4037   44.4328   55.3339 C   0  0  0  0  0  0  0  0  0  0  0  0
   -1.1602   43.9672   56.2899 H   0  0  0  0  0  0  0  0  0  0  0  0
   -2.2509   42.9182   55.4597 H   0  0  0  0  0  0  0  0  0  0  0  0
    0.0160   45.1877   52.3150 H   0  0  0  0  0  0  0  0  0  0  0  0
    2.0411   46.6250   52.1882 H   0  0  0  0  0  0  0  0  0  0  0  0
    3.9091   47.7408   54.5584 H   0  0  0  0  0  0  0  0  0  0  0  0
    8.3673   45.9231   49.9167 H   0  0  0  0  0  0  0  0  0  0  0  0
    8.5609   44.3257   48.0197 H   0  0  0  0  0  0  0  0  0  0  0  0
    7.1197   42.2910   47.9448 H   0  0  0  0  0  0  0  0  0  0  0  0
    5.4696   41.8679   49.7679 H   0  0  0  0  0  0  0  0  0  0  0  0
    5.2737   43.4617   51.6678 H   0  0  0  0  0  0  0  0  0  0  0  0
    9.4008   45.6963   51.3589 H   0  0  0  0  0  0  0  0  0  0  0  0
   11.1562   47.0925   52.4442 H   0  0  0  0  0  0  0  0  0  0  0  0
   10.5241   48.6363   54.3006 H   0  0  0  0  0  0  0  0  0  0  0  0
    8.1641   48.7603   55.0597 H   0  0  0  0  0  0  0  0  0  0  0  0
    3.2443   45.2689   56.0999 H   0  0  0  0  0  0  0  0  0  0  0  0
    1.2270   43.8191   56.2296 H   0  0  0  0  0  0  0  0  0  0  0  0
  1  2  1  0
  2  3  2  0
  2  4  1  0
  4  5  2  0
  5  6  1  0
  6  7  2  0
  7  8  1  0
  8  9  1  0
  9 10  2  0
 10 11  1  0
 11 12  1  0
 12 13  2  0
 13 14  1  0
 14 15  2  0
 15 16  1  0
 16 17  2  0
 11 18  2  0
 18 19  1  0
 19 20  2  0
 20 21  1  0
 21 22  2  0
 22 23  1  0
 23 24  2  0
  7 25  1  0
 25 26  2  0
 26  4  1  0
 24  9  1  0
 17 12  1  0
 23 18  1  0
  1 27  1  0
  1 28  1  0
  5 29  1  0
  6 30  1  0
  8 31  1  0
 13 32  1  0
 14 33  1  0
 15 34  1  0
 16 35  1  0
 17 36  1  0
 19 37  1  0
 20 38  1  0
 21 39  1  0
 22 40  1  0
 25 41  1  0
 26 42  1  0
M  END
>  <meeko>  (4) 
{"is_sidechain": false}

>  <CID>  (4) 
Z94803042

>  <pose_index>  (4) 
4

>  <docking_score>  (4) 
-9.635

>  <rmsd_to_best_selected>  (4) 
0.321697854715025

>  <MWT>  (4) 
340.38599999999974

>  <TPSA>  (4) 
80.9

>  <logP>  (4) 
4.139300000000002

>  <HBD>  (4) 
2

>  <HBA>  (4) 
4

>  <SMILES>  (4) 
[H]c1c([H])c([H])c(-c2nc(N([H])c3c([H])c([H])c(C(=O)N([H])[H])c([H])c3[H])nc3c([H])c([H])c([H])c([H])c23)c([H])c1[H]

$$$$
Z94803042_pose5
     RDKit          3D

 42 45  0  0  0  0  0  0  0  0999 V2000
   -1.5399   43.4144   54.4827 N   0  0  0  0  0  0  0  0  0  0  0  0
   -0.5293   43.6373   55.3784 C   0  0  0  0  0  0  0  0  0  0  0  0
   -0.5885   43.1784   56.5119 O   0  0  0  0  0  0  0  0  0  0  0  0
    0.6056   44.4882   54.9318 C   0  0  0  0  0  0  0  0  0  0  0  0
    0.9444   45.6041   55.6982 C   0  0  0  0  0  0  0  0  0  0  0  0
    2.0049   46.4348   55.3127 C   0  0  0  0  0  0  0  0  0  0  0  0
    2.7572   46.1651   54.1656 C   0  0  0  0  0  0  0  0  0  0  0  0
    3.8150   46.9634   53.7186 N   0  0  0  0  0  0  0  0  0  0  0  0
    5.1143   46.6990   53.2945 C   0  0  0  0  0  0  0  0  0  0  0  0
    5.3668   45.9493   52.2207 N   0  0  0  0  0  0  0  0  0  0  0  0
    6.6562   45.7424   51.8778 C   0  0  0  0  0  0  0  0  0  0  0  0
    6.8157   44.9319   50.6599 C   0  0  0  0  0  0  0  0  0  0  0  0
    6.7936   43.5271   50.7084 C   0  0  0  0  0  0  0  0  0  0  0  0
    6.9499   42.7665   49.5467 C   0  0  0  0  0  0  0  0  0  0  0  0
    7.1397   43.3985   48.3197 C   0  0  0  0  0  0  0  0  0  0  0  0
    7.1805   44.7900   48.2538 C   0  0  0  0  0  0  0  0  0  0  0  0
    7.0249   45.5483   49.4151 C   0  0  0  0  0  0  0  0  0  0  0  0
    7.7297   46.2539   52.6182 C   0  0  0  0  0  0  0  0  0  0  0  0
    9.1088   46.0441   52.3470 C   0  0  0  0  0  0  0  0  0  0  0  0
   10.0896   46.6102   53.1583 C   0  0  0  0  0  0  0  0  0  0  0  0
    9.7079   47.3832   54.2457 C   0  0  0  0  0  0  0  0  0  0  0  0
    8.3505   47.5780   54.5153 C   0  0  0  0  0  0  0  0  0  0  0  0
    7.3530   47.0224   53.7230 C   0  0  0  0  0  0  0  0  0  0  0  0
    6.0748   47.2447   54.0532 N   0  0  0  0  0  0  0  0  0  0  0  0
    2.4095   45.0321   53.4114 C   0  0  0  0  0  0  0  0  0  0  0  0
    1.3502   44.1968   53.7868 C   0  0  0  0  0  0  0  0  0  0  0  0
   -1.6760   44.0075   53.6773 H   0  0  0  0  0  0  0  0  0  0  0  0
   -2.3586   42.9516   54.8582 H   0  0  0  0  0  0  0  0  0  0  0  0
    0.3751   45.8332   56.6111 H   0  0  0  0  0  0  0  0  0  0  0  0
    2.2501   47.3157   55.9240 H   0  0  0  0  0  0  0  0  0  0  0  0
    3.6386   47.9527   53.6189 H   0  0  0  0  0  0  0  0  0  0  0  0
    6.6512   43.0198   51.6740 H   0  0  0  0  0  0  0  0  0  0  0  0
    6.9230   41.6682   49.6011 H   0  0  0  0  0  0  0  0  0  0  0  0
    7.2573   42.8000   47.4042 H   0  0  0  0  0  0  0  0  0  0  0  0
    7.3353   45.2905   47.2866 H   0  0  0  0  0  0  0  0  0  0  0  0
    7.0668   46.6459   49.3546 H   0  0  0  0  0  0  0  0  0  0  0  0
    9.4054   45.4270   51.4861 H   0  0  0  0  0  0  0  0  0  0  0  0
   11.1550   46.4463   52.9393 H   0  0  0  0  0  0  0  0  0  0  0  0
   10.4706   47.8409   54.8928 H   0  0  0  0  0  0  0  0  0  0  0  0
    8.0624   48.1906   55.3824 H   0  0  0  0  0  0  0  0  0  0  0  0
    2.9836   44.7952   52.5035 H   0  0  0  0  0  0  0  0  0  0  0  0
    1.1048   43.3123   53.1806 H   0  0  0  0  0  0  0  0  0  0  0  0
  1  2  1  0
  2  3  2  0
  2  4  1  0
  4  5  2  0
  5  6  1  0
  6  7  2  0
  7  8  1  0
  8  9  1  0
  9 10  2  0
 10 11  1  0
 11 12  1  0
 12 13  2  0
 13 14  1  0
 14 15  2  0
 15 16  1  0
 16 17  2  0
 11 18  2  0
 18 19  1  0
 19 20  2  0
 20 21  1  0
 21 22  2  0
 22 23  1  0
 23 24  2  0
  7 25  1  0
 25 26  2  0
 26  4  1  0
 24  9  1  0
 17 12  1  0
 23 18  1  0
  1 27  1  0
  1 28  1  0
  5 29  1  0
  6 30  1  0
  8 31  1  0
 13 32  1  0
 14 33  1  0
 15 34  1  0
 16 35  1  0
 17 36  1  0
 19 37  1  0
 20 38  1  0
 21 39  1  0
 22 40  1  0
 25 41  1  0
 26 42  1  0
M  END
>  <meeko>  (5) 
{"is_sidechain": false}

>  <CID>  (5) 
Z94803042

>  <pose_index>  (5) 
5

>  <docking_score>  (5) 
-9.579

>  <rmsd_to_best_selected>  (5) 
1.1520724626983514

>  <MWT>  (5) 
340.38599999999974

>  <TPSA>  (5) 
80.9

>  <logP>  (5) 
4.139300000000002

>  <HBD>  (5) 
2

>  <HBA>  (5) 
4

>  <SMILES>  (5) 
[H]c1c([H])c([H])c(-c2nc(N([H])c3c([H])c([H])c(C(=O)N([H])[H])c([H])c3[H])nc3c([H])c([H])c([H])c([H])c23)c([H])c1[H]

$$$$
Z94803042_pose8
     RDKit          3D

 42 45  0  0  0  0  0  0  0  0999 V2000
   -0.1893   43.3514   56.8354 N   0  0  0  0  0  0  0  0  0  0  0  0
   -0.4627   43.6433   55.5268 C   0  0  0  0  0  0  0  0  0  0  0  0
   -1.4547   43.1828   54.9793 O   0  0  0  0  0  0  0  0  0  0  0  0
    0.5146   44.4963   54.7987 C   0  0  0  0  0  0  0  0  0  0  0  0
    1.0502   44.0235   53.5989 C   0  0  0  0  0  0  0  0  0  0  0  0
    1.9756   44.7921   52.8811 C   0  0  0  0  0  0  0  0  0  0  0  0
    2.3762   46.0529   53.3338 C   0  0  0  0  0  0  0  0  0  0  0  0
    3.3071   46.8607   52.6736 N   0  0  0  0  0  0  0  0  0  0  0  0
    4.6784   46.7712   52.4506 C   0  0  0  0  0  0  0  0  0  0  0  0
    5.2392   45.6744   51.9386 N   0  0  0  0  0  0  0  0  0  0  0  0
    6.5773   45.6723   51.7526 C   0  0  0  0  0  0  0  0  0  0  0  0
    7.0818   44.4269   51.1523 C   0  0  0  0  0  0  0  0  0  0  0  0
    8.2806   43.8366   51.5900 C   0  0  0  0  0  0  0  0  0  0  0  0
    8.7530   42.6560   51.0111 C   0  0  0  0  0  0  0  0  0  0  0  0
    8.0393   42.0525   49.9779 C   0  0  0  0  0  0  0  0  0  0  0  0
    6.8578   42.6319   49.5195 C   0  0  0  0  0  0  0  0  0  0  0  0
    6.3872   43.8110   50.0988 C   0  0  0  0  0  0  0  0  0  0  0  0
    7.3940   46.7546   52.1021 C   0  0  0  0  0  0  0  0  0  0  0  0
    8.8082   46.8102   51.9781 C   0  0  0  0  0  0  0  0  0  0  0  0
    9.5139   47.9484   52.3602 C   0  0  0  0  0  0  0  0  0  0  0  0
    8.8217   49.0360   52.8714 C   0  0  0  0  0  0  0  0  0  0  0  0
    7.4314   48.9747   53.0013 C   0  0  0  0  0  0  0  0  0  0  0  0
    6.7050   47.8495   52.6306 C   0  0  0  0  0  0  0  0  0  0  0  0
    5.3768   47.8607   52.7979 N   0  0  0  0  0  0  0  0  0  0  0  0
    1.8195   46.5195   54.5366 C   0  0  0  0  0  0  0  0  0  0  0  0
    0.8960   45.7567   55.2632 C   0  0  0  0  0  0  0  0  0  0  0  0
    0.7401   43.4479   57.2189 H   0  0  0  0  0  0  0  0  0  0  0  0
   -0.7954   42.6606   57.2613 H   0  0  0  0  0  0  0  0  0  0  0  0
    0.7432   43.0397   53.2144 H   0  0  0  0  0  0  0  0  0  0  0  0
    2.3947   44.3965   51.9442 H   0  0  0  0  0  0  0  0  0  0  0  0
    2.9554   47.6779   52.1986 H   0  0  0  0  0  0  0  0  0  0  0  0
    8.8547   44.3111   52.3995 H   0  0  0  0  0  0  0  0  0  0  0  0
    9.6884   42.2028   51.3712 H   0  0  0  0  0  0  0  0  0  0  0  0
    8.4078   41.1204   49.5248 H   0  0  0  0  0  0  0  0  0  0  0  0
    6.2956   42.1595   48.7005 H   0  0  0  0  0  0  0  0  0  0  0  0
    5.4578   44.2650   49.7244 H   0  0  0  0  0  0  0  0  0  0  0  0
    9.3526   45.9434   51.5752 H   0  0  0  0  0  0  0  0  0  0  0  0
   10.6085   47.9843   52.2576 H   0  0  0  0  0  0  0  0  0  0  0  0
    9.3649   49.9435   53.1736 H   0  0  0  0  0  0  0  0  0  0  0  0
    6.8955   49.8442   53.4097 H   0  0  0  0  0  0  0  0  0  0  0  0
    2.1162   47.5080   54.9170 H   0  0  0  0  0  0  0  0  0  0  0  0
    0.4717   46.1503   56.1987 H   0  0  0  0  0  0  0  0  0  0  0  0
  1  2  1  0
  2  3  2  0
  2  4  1  0
  4  5  2  0
  5  6  1  0
  6  7  2  0
  7  8  1  0
  8  9  1  0
  9 10  2  0
 10 11  1  0
 11 12  1  0
 12 13  2  0
 13 14  1  0
 14 15  2  0
 15 16  1  0
 16 17  2  0
 11 18  2  0
 18 19  1  0
 19 20  2  0
 20 21  1  0
 21 22  2  0
 22 23  1  0
 23 24  2  0
  7 25  1  0
 25 26  2  0
 26  4  1  0
 24  9  1  0
 17 12  1  0
 23 18  1  0
  1 27  1  0
  1 28  1  0
  5 29  1  0
  6 30  1  0
  8 31  1  0
 13 32  1  0
 14 33  1  0
 15 34  1  0
 16 35  1  0
 17 36  1  0
 19 37  1  0
 20 38  1  0
 21 39  1  0
 22 40  1  0
 25 41  1  0
 26 42  1  0
M  END
>  <meeko>  (6) 
{"is_sidechain": false}

>  <CID>  (6) 
Z94803042

>  <pose_index>  (6) 
8

>  <docking_score>  (6) 
-9.344

>  <rmsd_to_best_selected>  (6) 
1.3457017540394336

>  <MWT>  (6) 
340.38599999999974

>  <TPSA>  (6) 
80.9

>  <logP>  (6) 
4.139300000000002

>  <HBD>  (6) 
2

>  <HBA>  (6) 
4

>  <SMILES>  (6) 
[H]c1c([H])c([H])c(-c2nc(N([H])c3c([H])c([H])c(C(=O)N([H])[H])c([H])c3[H])nc3c([H])c([H])c([H])c([H])c23)c([H])c1[H]

$$$$
Z94803042_pose9
     RDKit          3D

 42 45  0  0  0  0  0  0  0  0999 V2000
   -1.7601   43.9154   54.4449 N   0  0  0  0  0  0  0  0  0  0  0  0
   -1.1516   45.0436   54.9231 C   0  0  0  0  0  0  0  0  0  0  0  0
   -1.8158   45.9882   55.3253 O   0  0  0  0  0  0  0  0  0  0  0  0
    0.3352   45.0843   54.8907 C   0  0  0  0  0  0  0  0  0  0  0  0
    0.9843   46.1942   55.4344 C   0  0  0  0  0  0  0  0  0  0  0  0
    2.3828   46.2767   55.4205 C   0  0  0  0  0  0  0  0  0  0  0  0
    3.1650   45.2508   54.8809 C   0  0  0  0  0  0  0  0  0  0  0  0
    4.5610   45.2807   54.8228 N   0  0  0  0  0  0  0  0  0  0  0  0
    5.4802   45.6800   53.8559 C   0  0  0  0  0  0  0  0  0  0  0  0
    6.0509   44.8086   53.0227 N   0  0  0  0  0  0  0  0  0  0  0  0
    6.9319   45.2811   52.1143 C   0  0  0  0  0  0  0  0  0  0  0  0
    7.4724   44.2386   51.2273 C   0  0  0  0  0  0  0  0  0  0  0  0
    6.6249   43.3693   50.5179 C   0  0  0  0  0  0  0  0  0  0  0  0
    7.1485   42.3805   49.6808 C   0  0  0  0  0  0  0  0  0  0  0  0
    8.5285   42.2402   49.5472 C   0  0  0  0  0  0  0  0  0  0  0  0
    9.3839   43.0819   50.2544 C   0  0  0  0  0  0  0  0  0  0  0  0
    8.8598   44.0686   51.0907 C   0  0  0  0  0  0  0  0  0  0  0  0
    7.2882   46.6332   52.0345 C   0  0  0  0  0  0  0  0  0  0  0  0
    8.2353   47.1971   51.1381 C   0  0  0  0  0  0  0  0  0  0  0  0
    8.5061   48.5623   51.1522 C   0  0  0  0  0  0  0  0  0  0  0  0
    7.8419   49.3768   52.0586 C   0  0  0  0  0  0  0  0  0  0  0  0
    6.9182   48.8173   52.9462 C   0  0  0  0  0  0  0  0  0  0  0  0
    6.6333   47.4562   52.9533 C   0  0  0  0  0  0  0  0  0  0  0  0
    5.7468   46.9936   53.8428 N   0  0  0  0  0  0  0  0  0  0  0  0
    2.4964   44.1356   54.3487 C   0  0  0  0  0  0  0  0  0  0  0  0
    1.0982   44.0458   54.3532 C   0  0  0  0  0  0  0  0  0  0  0  0
   -1.2776   43.2682   53.8383 H   0  0  0  0  0  0  0  0  0  0  0  0
   -2.7670   43.9721   54.3516 H   0  0  0  0  0  0  0  0  0  0  0  0
    0.3936   47.0098   55.8768 H   0  0  0  0  0  0  0  0  0  0  0  0
    2.8750   47.1654   55.8423 H   0  0  0  0  0  0  0  0  0  0  0  0
    5.0650   45.0050   55.6528 H   0  0  0  0  0  0  0  0  0  0  0  0
    5.5345   43.4691   50.6233 H   0  0  0  0  0  0  0  0  0  0  0  0
    6.4716   41.7130   49.1274 H   0  0  0  0  0  0  0  0  0  0  0  0
    8.9418   41.4658   48.8842 H   0  0  0  0  0  0  0  0  0  0  0  0
   10.4734   42.9689   50.1536 H   0  0  0  0  0  0  0  0  0  0  0  0
    9.5436   44.7229   51.6513 H   0  0  0  0  0  0  0  0  0  0  0  0
    8.7612   46.5465   50.4238 H   0  0  0  0  0  0  0  0  0  0  0  0
    9.2387   48.9911   50.4525 H   0  0  0  0  0  0  0  0  0  0  0  0
    8.0415   50.4584   52.0785 H   0  0  0  0  0  0  0  0  0  0  0  0
    6.4008   49.4740   53.6611 H   0  0  0  0  0  0  0  0  0  0  0  0
    3.0853   43.3125   53.9177 H   0  0  0  0  0  0  0  0  0  0  0  0
    0.6022   43.1581   53.9338 H   0  0  0  0  0  0  0  0  0  0  0  0
  1  2  1  0
  2  3  2  0
  2  4  1  0
  4  5  2  0
  5  6  1  0
  6  7  2  0
  7  8  1  0
  8  9  1  0
  9 10  2  0
 10 11  1  0
 11 12  1  0
 12 13  2  0
 13 14  1  0
 14 15  2  0
 15 16  1  0
 16 17  2  0
 11 18  2  0
 18 19  1  0
 19 20  2  0
 20 21  1  0
 21 22  2  0
 22 23  1  0
 23 24  2  0
  7 25  1  0
 25 26  2  0
 26  4  1  0
 24  9  1  0
 17 12  1  0
 23 18  1  0
  1 27  1  0
  1 28  1  0
  5 29  1  0
  6 30  1  0
  8 31  1  0
 13 32  1  0
 14 33  1  0
 15 34  1  0
 16 35  1  0
 17 36  1  0
 19 37  1  0
 20 38  1  0
 21 39  1  0
 22 40  1  0
 25 41  1  0
 26 42  1  0
M  END
>  <meeko>  (7) 
{"is_sidechain": false}

>  <CID>  (7) 
Z94803042

>  <pose_index>  (7) 
9

>  <docking_score>  (7) 
-9.159

>  <rmsd_to_best_selected>  (7) 
1.764051858959788

>  <MWT>  (7) 
340.38599999999974

>  <TPSA>  (7) 
80.9

>  <logP>  (7) 
4.139300000000002

>  <HBD>  (7) 
2

>  <HBA>  (7) 
4

>  <SMILES>  (7) 
[H]c1c([H])c([H])c(-c2nc(N([H])c3c([H])c([H])c(C(=O)N([H])[H])c([H])c3[H])nc3c([H])c([H])c([H])c([H])c23)c([H])c1[H]

$$$$
