Z990898380_pose4
     RDKit          3D

 45 47  0  0  0  0  0  0  0  0999 V2000
    6.1151   46.2929   56.2713 O   0  0  0  0  0  0  0  0  0  0  0  0
    5.5226   46.2195   55.1980 C   0  0  0  0  0  0  0  0  0  0  0  0
    4.0916   45.7434   55.0634 C   0  0  0  0  0  0  0  0  0  0  0  0
    3.4259   46.2841   53.8037 C   0  0  0  0  0  0  0  0  0  0  0  0
    3.0283   45.2163   52.8984 N   0  0  0  0  0  0  0  0  0  0  0  0
    3.8753   44.6825   51.9729 C   0  0  0  0  0  0  0  0  0  0  0  0
    5.0051   45.2289   51.6520 N   0  0  0  0  0  0  0  0  0  0  0  0
    5.8101   44.6014   50.6876 C   0  0  0  0  0  0  0  0  0  0  0  0
    7.0290   45.1871   50.3374 C   0  0  0  0  0  0  0  0  0  0  0  0
    7.8566   44.5905   49.3825 C   0  0  0  0  0  0  0  0  0  0  0  0
    7.4736   43.3982   48.7677 C   0  0  0  0  0  0  0  0  0  0  0  0
    6.2594   42.8022   49.1056 C   0  0  0  0  0  0  0  0  0  0  0  0
    5.4408   43.4106   50.0613 C   0  0  0  0  0  0  0  0  0  0  0  0
    4.1502   42.8216   50.4500 C   0  0  0  0  0  0  0  0  0  0  0  0
    3.7322   41.7826   49.9528 O   0  0  0  0  0  0  0  0  0  0  0  0
    3.4509   43.5130   51.4049 N   0  0  0  0  0  0  0  0  0  0  0  0
    6.0940   46.5549   53.9858 N   0  0  0  0  0  0  0  0  0  0  0  0
    7.5033   46.9114   53.8796 C   0  0  0  0  0  0  0  0  0  0  0  0
    8.3697   45.6740   53.6325 C   0  0  0  0  0  0  0  0  0  0  0  0
    9.8612   46.0180   53.6168 C   0  0  0  0  0  0  0  0  0  0  0  0
   10.1557   47.4484   53.1640 C   0  0  0  0  0  0  0  0  0  0  0  0
    9.1150   47.9519   52.1738 C   0  0  0  0  0  0  0  0  0  0  0  0
    7.7076   47.9608   52.7749 C   0  0  0  0  0  0  0  0  0  0  0  0
    4.0853   44.6441   55.0244 H   0  0  0  0  0  0  0  0  0  0  0  0
    3.5272   46.1140   55.9317 H   0  0  0  0  0  0  0  0  0  0  0  0
    2.5322   46.8572   54.0918 H   0  0  0  0  0  0  0  0  0  0  0  0
    4.1540   46.9212   53.2802 H   0  0  0  0  0  0  0  0  0  0  0  0
    2.3677   44.5768   53.3343 H   0  0  0  0  0  0  0  0  0  0  0  0
    7.3402   46.1264   50.8178 H   0  0  0  0  0  0  0  0  0  0  0  0
    8.8133   45.0627   49.1145 H   0  0  0  0  0  0  0  0  0  0  0  0
    8.1282   42.9294   48.0181 H   0  0  0  0  0  0  0  0  0  0  0  0
    5.9488   41.8627   48.6250 H   0  0  0  0  0  0  0  0  0  0  0  0
    2.5534   43.1315   51.6545 H   0  0  0  0  0  0  0  0  0  0  0  0
    5.6218   46.2496   53.1446 H   0  0  0  0  0  0  0  0  0  0  0  0
    7.8210   47.3507   54.8367 H   0  0  0  0  0  0  0  0  0  0  0  0
    8.1814   44.9422   54.4318 H   0  0  0  0  0  0  0  0  0  0  0  0
    8.1037   45.2616   52.6480 H   0  0  0  0  0  0  0  0  0  0  0  0
   10.2588   45.8865   54.6340 H   0  0  0  0  0  0  0  0  0  0  0  0
   10.3394   45.3450   52.8899 H   0  0  0  0  0  0  0  0  0  0  0  0
   10.1579   48.1075   54.0446 H   0  0  0  0  0  0  0  0  0  0  0  0
   11.1355   47.4545   52.6640 H   0  0  0  0  0  0  0  0  0  0  0  0
    9.3785   48.9764   51.8720 H   0  0  0  0  0  0  0  0  0  0  0  0
    9.1109   47.2709   51.3100 H   0  0  0  0  0  0  0  0  0  0  0  0
    7.5182   48.9566   53.2019 H   0  0  0  0  0  0  0  0  0  0  0  0
    7.0084   47.7139   51.9624 H   0  0  0  0  0  0  0  0  0  0  0  0
  1  2  2  0
  2  3  1  0
  3  4  1  0
  4  5  1  0
  5  6  1  0
  6  7  2  0
  7  8  1  0
  8  9  2  0
  9 10  1  0
 10 11  2  0
 11 12  1  0
 12 13  2  0
 13 14  1  0
 14 15  2  0
 14 16  1  0
  2 17  1  0
 17 18  1  0
 18 19  1  0
 19 20  1  0
 20 21  1  0
 21 22  1  0
 22 23  1  0
 16  6  1  0
 23 18  1  0
 13  8  1  0
  3 24  1  0
  3 25  1  0
  4 26  1  0
  4 27  1  0
  5 28  1  0
  9 29  1  0
 10 30  1  0
 11 31  1  0
 12 32  1  0
 16 33  1  0
 17 34  1  0
 18 35  1  0
 19 36  1  0
 19 37  1  0
 20 38  1  0
 20 39  1  0
 21 40  1  0
 21 41  1  0
 22 42  1  0
 22 43  1  0
 23 44  1  0
 23 45  1  0
M  END
>  <meeko>  (1) 
{"is_sidechain": false}

>  <CID>  (1) 
Z990898380

>  <pose_index>  (1) 
4

>  <docking_score>  (1) 
-8.731

>  <rmsd_to_best_selected>  (1) 
1.1277899545162215

>  <MWT>  (1) 
314.38899999999967

>  <TPSA>  (1) 
86.88

>  <logP>  (1) 
2.1739999999999995

>  <HBD>  (1) 
3

>  <HBA>  (1) 
4

>  <SMILES>  (1) 
[H]c1c([H])c([H])c2c(=O)n([H])c(N([H])C([H])([H])C([H])([H])C(=O)N([H])C3([H])C([H])([H])C([H])([H])C([H])([H])C([H])([H])C3([H])[H])nc2c1[H]

$$$$
Z990898380_pose1
     RDKit          3D

 45 47  0  0  0  0  0  0  0  0999 V2000
    5.8070   45.2820   55.2430 O   0  0  0  0  0  0  0  0  0  0  0  0
    5.3020   46.1870   54.5840 C   0  0  0  0  0  0  0  0  0  0  0  0
    3.8270   46.5240   54.6220 C   0  0  0  0  0  0  0  0  0  0  0  0
    3.2050   46.5280   53.2310 C   0  0  0  0  0  0  0  0  0  0  0  0
    2.9730   45.1780   52.7360 N   0  0  0  0  0  0  0  0  0  0  0  0
    3.8900   44.5010   51.9880 C   0  0  0  0  0  0  0  0  0  0  0  0
    4.9220   45.0700   51.4520 N   0  0  0  0  0  0  0  0  0  0  0  0
    5.8110   44.2860   50.7000 C   0  0  0  0  0  0  0  0  0  0  0  0
    6.9270   44.8950   50.1190 C   0  0  0  0  0  0  0  0  0  0  0  0
    7.8350   44.1460   49.3640 C   0  0  0  0  0  0  0  0  0  0  0  0
    7.6360   42.7780   49.1840 C   0  0  0  0  0  0  0  0  0  0  0  0
    6.5270   42.1550   49.7560 C   0  0  0  0  0  0  0  0  0  0  0  0
    5.6280   42.9160   50.5080 C   0  0  0  0  0  0  0  0  0  0  0  0
    4.4430   42.3070   51.1290 C   0  0  0  0  0  0  0  0  0  0  0  0
    4.1870   41.1140   51.0130 O   0  0  0  0  0  0  0  0  0  0  0  0
    3.6470   43.1630   51.8470 N   0  0  0  0  0  0  0  0  0  0  0  0
    6.0170   46.9970   53.7240 N   0  0  0  0  0  0  0  0  0  0  0  0
    7.4260   46.7550   53.4420 C   0  0  0  0  0  0  0  0  0  0  0  0
    7.8700   47.4850   52.1720 C   0  0  0  0  0  0  0  0  0  0  0  0
    9.3210   47.1620   51.8070 C   0  0  0  0  0  0  0  0  0  0  0  0
   10.1920   46.8090   53.0140 C   0  0  0  0  0  0  0  0  0  0  0  0
    9.7290   47.5270   54.2730 C   0  0  0  0  0  0  0  0  0  0  0  0
    8.2900   47.1620   54.6470 C   0  0  0  0  0  0  0  0  0  0  0  0
    3.3081   45.7770   55.2406 H   0  0  0  0  0  0  0  0  0  0  0  0
    3.7207   47.5342   55.0440 H   0  0  0  0  0  0  0  0  0  0  0  0
    2.2440   47.0616   53.2727 H   0  0  0  0  0  0  0  0  0  0  0  0
    3.9060   47.0267   52.5455 H   0  0  0  0  0  0  0  0  0  0  0  0
    2.4180   44.6270   53.3870 H   0  0  0  0  0  0  0  0  0  0  0  0
    7.0925   45.9737   50.2570 H   0  0  0  0  0  0  0  0  0  0  0  0
    8.7086   44.6375   48.9109 H   0  0  0  0  0  0  0  0  0  0  0  0
    8.3528   42.1906   48.5915 H   0  0  0  0  0  0  0  0  0  0  0  0
    6.3618   41.0764   49.6167 H   0  0  0  0  0  0  0  0  0  0  0  0
    2.8200   42.7580   52.2510 H   0  0  0  0  0  0  0  0  0  0  0  0
    5.4930   47.5530   53.0600 H   0  0  0  0  0  0  0  0  0  0  0  0
    7.5624   45.6776   53.2669 H   0  0  0  0  0  0  0  0  0  0  0  0
    7.2177   47.1807   51.3402 H   0  0  0  0  0  0  0  0  0  0  0  0
    7.7973   48.5669   52.3570 H   0  0  0  0  0  0  0  0  0  0  0  0
    9.3234   46.3073   51.1145 H   0  0  0  0  0  0  0  0  0  0  0  0
    9.7492   48.0684   51.3542 H   0  0  0  0  0  0  0  0  0  0  0  0
   10.1419   45.7234   53.1842 H   0  0  0  0  0  0  0  0  0  0  0  0
   11.2224   47.1276   52.7975 H   0  0  0  0  0  0  0  0  0  0  0  0
   10.3932   47.2490   55.1046 H   0  0  0  0  0  0  0  0  0  0  0  0
    9.7648   48.6091   54.0788 H   0  0  0  0  0  0  0  0  0  0  0  0
    8.3173   46.3209   55.3554 H   0  0  0  0  0  0  0  0  0  0  0  0
    7.8318   48.0616   55.0838 H   0  0  0  0  0  0  0  0  0  0  0  0
  1  2  2  0
  2  3  1  0
  3  4  1  0
  4  5  1  0
  5  6  1  0
  6  7  2  0
  7  8  1  0
  8  9  2  0
  9 10  1  0
 10 11  2  0
 11 12  1  0
 12 13  2  0
 13 14  1  0
 14 15  2  0
 14 16  1  0
  2 17  1  0
 17 18  1  0
 18 19  1  0
 19 20  1  0
 20 21  1  0
 21 22  1  0
 22 23  1  0
 16  6  1  0
 23 18  1  0
 13  8  1  0
  3 24  1  0
  3 25  1  0
  4 26  1  0
  4 27  1  0
  5 28  1  0
  9 29  1  0
 10 30  1  0
 11 31  1  0
 12 32  1  0
 16 33  1  0
 17 34  1  0
 18 35  1  0
 19 36  1  0
 19 37  1  0
 20 38  1  0
 20 39  1  0
 21 40  1  0
 21 41  1  0
 22 42  1  0
 22 43  1  0
 23 44  1  0
 23 45  1  0
M  END
>  <meeko>  (2) 
{"is_sidechain": false}

>  <CID>  (2) 
Z990898380

>  <pose_index>  (2) 
1

>  <docking_score>  (2) 
-9.616

>  <rmsd_to_best_selected>  (2) 
0.0

>  <MWT>  (2) 
314.38899999999967

>  <TPSA>  (2) 
86.88

>  <logP>  (2) 
2.1739999999999995

>  <HBD>  (2) 
3

>  <HBA>  (2) 
4

>  <SMILES>  (2) 
[H]c1c([H])c([H])c2c(=O)n([H])c(N([H])C([H])([H])C([H])([H])C(=O)N([H])C3([H])C([H])([H])C([H])([H])C([H])([H])C([H])([H])C3([H])[H])nc2c1[H]

$$$$
Z990898380_pose2
     RDKit          3D

 45 47  0  0  0  0  0  0  0  0999 V2000
    5.2838   48.6754   54.5251 O   0  0  0  0  0  0  0  0  0  0  0  0
    5.1107   47.6915   53.8094 C   0  0  0  0  0  0  0  0  0  0  0  0
    3.7668   47.0203   53.6248 C   0  0  0  0  0  0  0  0  0  0  0  0
    3.7086   45.6606   54.3106 C   0  0  0  0  0  0  0  0  0  0  0  0
    3.1999   44.6246   53.4222 N   0  0  0  0  0  0  0  0  0  0  0  0
    3.9397   44.0981   52.4057 C   0  0  0  0  0  0  0  0  0  0  0  0
    5.0457   44.6312   51.9889 N   0  0  0  0  0  0  0  0  0  0  0  0
    5.7367   44.0123   50.9354 C   0  0  0  0  0  0  0  0  0  0  0  0
    6.9294   44.5828   50.4809 C   0  0  0  0  0  0  0  0  0  0  0  0
    7.6461   43.9946   49.4352 C   0  0  0  0  0  0  0  0  0  0  0  0
    7.1773   42.8275   48.8319 C   0  0  0  0  0  0  0  0  0  0  0  0
    5.9898   42.2467   49.2722 C   0  0  0  0  0  0  0  0  0  0  0  0
    5.2821   42.8462   50.3192 C   0  0  0  0  0  0  0  0  0  0  0  0
    4.0226   42.2736   50.8181 C   0  0  0  0  0  0  0  0  0  0  0  0
    3.5349   41.2564   50.3393 O   0  0  0  0  0  0  0  0  0  0  0  0
    3.4365   42.9541   51.8535 N   0  0  0  0  0  0  0  0  0  0  0  0
    6.1212   47.0788   53.0966 N   0  0  0  0  0  0  0  0  0  0  0  0
    7.5120   47.4888   53.2380 C   0  0  0  0  0  0  0  0  0  0  0  0
    8.1756   46.7931   54.4304 C   0  0  0  0  0  0  0  0  0  0  0  0
    9.6072   47.2864   54.6536 C   0  0  0  0  0  0  0  0  0  0  0  0
   10.2948   47.7691   53.3763 C   0  0  0  0  0  0  0  0  0  0  0  0
    9.7906   47.0260   52.1480 C   0  0  0  0  0  0  0  0  0  0  0  0
    8.2858   47.2165   51.9382 C   0  0  0  0  0  0  0  0  0  0  0  0
    2.9855   47.6667   54.0509 H   0  0  0  0  0  0  0  0  0  0  0  0
    3.6103   46.8642   52.5472 H   0  0  0  0  0  0  0  0  0  0  0  0
    4.7219   45.3832   54.6366 H   0  0  0  0  0  0  0  0  0  0  0  0
    3.0238   45.7406   55.1677 H   0  0  0  0  0  0  0  0  0  0  0  0
    2.5712   43.9866   53.9060 H   0  0  0  0  0  0  0  0  0  0  0  0
    7.3072   45.5029   50.9507 H   0  0  0  0  0  0  0  0  0  0  0  0
    8.5830   44.4535   49.0866 H   0  0  0  0  0  0  0  0  0  0  0  0
    7.7443   42.3663   48.0098 H   0  0  0  0  0  0  0  0  0  0  0  0
    5.6128   41.3267   48.8015 H   0  0  0  0  0  0  0  0  0  0  0  0
    2.5590   42.5834   52.1811 H   0  0  0  0  0  0  0  0  0  0  0  0
    5.9390   46.1547   52.7259 H   0  0  0  0  0  0  0  0  0  0  0  0
    7.5333   48.5712   53.4328 H   0  0  0  0  0  0  0  0  0  0  0  0
    7.5841   46.9965   55.3352 H   0  0  0  0  0  0  0  0  0  0  0  0
    8.2155   45.7147   54.2173 H   0  0  0  0  0  0  0  0  0  0  0  0
    9.5797   48.1205   55.3702 H   0  0  0  0  0  0  0  0  0  0  0  0
   10.1880   46.4310   55.0289 H   0  0  0  0  0  0  0  0  0  0  0  0
   10.0960   48.8435   53.2491 H   0  0  0  0  0  0  0  0  0  0  0  0
   11.3732   47.5756   53.4744 H   0  0  0  0  0  0  0  0  0  0  0  0
   10.3229   47.4026   51.2621 H   0  0  0  0  0  0  0  0  0  0  0  0
    9.9788   45.9529   52.2998 H   0  0  0  0  0  0  0  0  0  0  0  0
    8.1346   48.0683   51.2588 H   0  0  0  0  0  0  0  0  0  0  0  0
    7.8967   46.2752   51.5228 H   0  0  0  0  0  0  0  0  0  0  0  0
  1  2  2  0
  2  3  1  0
  3  4  1  0
  4  5  1  0
  5  6  1  0
  6  7  2  0
  7  8  1  0
  8  9  2  0
  9 10  1  0
 10 11  2  0
 11 12  1  0
 12 13  2  0
 13 14  1  0
 14 15  2  0
 14 16  1  0
  2 17  1  0
 17 18  1  0
 18 19  1  0
 19 20  1  0
 20 21  1  0
 21 22  1  0
 22 23  1  0
 16  6  1  0
 23 18  1  0
 13  8  1  0
  3 24  1  0
  3 25  1  0
  4 26  1  0
  4 27  1  0
  5 28  1  0
  9 29  1  0
 10 30  1  0
 11 31  1  0
 12 32  1  0
 16 33  1  0
 17 34  1  0
 18 35  1  0
 19 36  1  0
 19 37  1  0
 20 38  1  0
 20 39  1  0
 21 40  1  0
 21 41  1  0
 22 42  1  0
 22 43  1  0
 23 44  1  0
 23 45  1  0
M  END
>  <meeko>  (3) 
{"is_sidechain": false}

>  <CID>  (3) 
Z990898380

>  <pose_index>  (3) 
2

>  <docking_score>  (3) 
-9.425

>  <rmsd_to_best_selected>  (3) 
1.3734112072141051

>  <MWT>  (3) 
314.38899999999967

>  <TPSA>  (3) 
86.88

>  <logP>  (3) 
2.1739999999999995

>  <HBD>  (3) 
3

>  <HBA>  (3) 
4

>  <SMILES>  (3) 
[H]c1c([H])c([H])c2c(=O)n([H])c(N([H])C([H])([H])C([H])([H])C(=O)N([H])C3([H])C([H])([H])C([H])([H])C([H])([H])C([H])([H])C3([H])[H])nc2c1[H]

$$$$
Z990898380_pose3
     RDKit          3D

 45 47  0  0  0  0  0  0  0  0999 V2000
    5.9669   46.9603   56.0256 O   0  0  0  0  0  0  0  0  0  0  0  0
    5.4087   46.8230   54.9399 C   0  0  0  0  0  0  0  0  0  0  0  0
    3.9357   46.5081   54.7921 C   0  0  0  0  0  0  0  0  0  0  0  0
    3.6962   45.0399   54.4578 C   0  0  0  0  0  0  0  0  0  0  0  0
    3.2291   44.8628   53.0907 N   0  0  0  0  0  0  0  0  0  0  0  0
    4.0084   44.3219   52.1107 C   0  0  0  0  0  0  0  0  0  0  0  0
    5.2862   44.1502   52.2405 N   0  0  0  0  0  0  0  0  0  0  0  0
    6.0030   43.5834   51.1744 C   0  0  0  0  0  0  0  0  0  0  0  0
    7.3809   43.3948   51.3085 C   0  0  0  0  0  0  0  0  0  0  0  0
    8.1270   42.8335   50.2690 C   0  0  0  0  0  0  0  0  0  0  0  0
    7.5009   42.4510   49.0825 C   0  0  0  0  0  0  0  0  0  0  0  0
    6.1265   42.6328   48.9329 C   0  0  0  0  0  0  0  0  0  0  0  0
    5.3930   43.1974   49.9802 C   0  0  0  0  0  0  0  0  0  0  0  0
    3.9426   43.4113   49.8694 C   0  0  0  0  0  0  0  0  0  0  0  0
    3.3153   43.1134   48.8603 O   0  0  0  0  0  0  0  0  0  0  0  0
    3.3433   43.9632   50.9725 N   0  0  0  0  0  0  0  0  0  0  0  0
    6.0601   46.9328   53.7271 N   0  0  0  0  0  0  0  0  0  0  0  0
    7.5043   47.1024   53.6496 C   0  0  0  0  0  0  0  0  0  0  0  0
    8.0786   46.4109   52.4108 C   0  0  0  0  0  0  0  0  0  0  0  0
    9.6057   46.4953   52.3665 C   0  0  0  0  0  0  0  0  0  0  0  0
   10.1712   47.7289   53.0713 C   0  0  0  0  0  0  0  0  0  0  0  0
    9.2114   48.9085   53.0026 C   0  0  0  0  0  0  0  0  0  0  0  0
    7.8688   48.5964   53.6692 C   0  0  0  0  0  0  0  0  0  0  0  0
    3.4253   46.7449   55.7373 H   0  0  0  0  0  0  0  0  0  0  0  0
    3.5402   47.1141   53.9636 H   0  0  0  0  0  0  0  0  0  0  0  0
    4.6390   44.4879   54.5857 H   0  0  0  0  0  0  0  0  0  0  0  0
    2.9180   44.6590   55.1356 H   0  0  0  0  0  0  0  0  0  0  0  0
    2.2354   44.6445   53.0555 H   0  0  0  0  0  0  0  0  0  0  0  0
    7.8830   43.6910   52.2413 H   0  0  0  0  0  0  0  0  0  0  0  0
    9.2116   42.6927   50.3866 H   0  0  0  0  0  0  0  0  0  0  0  0
    8.0901   42.0070   48.2666 H   0  0  0  0  0  0  0  0  0  0  0  0
    5.6247   42.3350   48.0004 H   0  0  0  0  0  0  0  0  0  0  0  0
    2.3553   44.1391   50.8933 H   0  0  0  0  0  0  0  0  0  0  0  0
    5.5830   46.5818   52.9060 H   0  0  0  0  0  0  0  0  0  0  0  0
    7.9547   46.6238   54.5317 H   0  0  0  0  0  0  0  0  0  0  0  0
    7.7811   45.3520   52.4246 H   0  0  0  0  0  0  0  0  0  0  0  0
    7.6830   46.9224   51.5209 H   0  0  0  0  0  0  0  0  0  0  0  0
   10.0178   45.5981   52.8516 H   0  0  0  0  0  0  0  0  0  0  0  0
    9.8943   46.5680   51.3075 H   0  0  0  0  0  0  0  0  0  0  0  0
   10.3571   47.4821   54.1270 H   0  0  0  0  0  0  0  0  0  0  0  0
   11.1033   48.0163   52.5626 H   0  0  0  0  0  0  0  0  0  0  0  0
    9.6694   49.7689   53.5124 H   0  0  0  0  0  0  0  0  0  0  0  0
    9.0205   49.1293   51.9420 H   0  0  0  0  0  0  0  0  0  0  0  0
    7.9149   48.9294   54.7166 H   0  0  0  0  0  0  0  0  0  0  0  0
    7.0933   49.1253   53.0959 H   0  0  0  0  0  0  0  0  0  0  0  0
  1  2  2  0
  2  3  1  0
  3  4  1  0
  4  5  1  0
  5  6  1  0
  6  7  2  0
  7  8  1  0
  8  9  2  0
  9 10  1  0
 10 11  2  0
 11 12  1  0
 12 13  2  0
 13 14  1  0
 14 15  2  0
 14 16  1  0
  2 17  1  0
 17 18  1  0
 18 19  1  0
 19 20  1  0
 20 21  1  0
 21 22  1  0
 22 23  1  0
 16  6  1  0
 23 18  1  0
 13  8  1  0
  3 24  1  0
  3 25  1  0
  4 26  1  0
  4 27  1  0
  5 28  1  0
  9 29  1  0
 10 30  1  0
 11 31  1  0
 12 32  1  0
 16 33  1  0
 17 34  1  0
 18 35  1  0
 19 36  1  0
 19 37  1  0
 20 38  1  0
 20 39  1  0
 21 40  1  0
 21 41  1  0
 22 42  1  0
 22 43  1  0
 23 44  1  0
 23 45  1  0
M  END
>  <meeko>  (4) 
{"is_sidechain": false}

>  <CID>  (4) 
Z990898380

>  <pose_index>  (4) 
3

>  <docking_score>  (4) 
-8.76

>  <rmsd_to_best_selected>  (4) 
1.7513474236193194

>  <MWT>  (4) 
314.38899999999967

>  <TPSA>  (4) 
86.88

>  <logP>  (4) 
2.1739999999999995

>  <HBD>  (4) 
3

>  <HBA>  (4) 
4

>  <SMILES>  (4) 
[H]c1c([H])c([H])c2c(=O)n([H])c(N([H])C([H])([H])C([H])([H])C(=O)N([H])C3([H])C([H])([H])C([H])([H])C([H])([H])C([H])([H])C3([H])[H])nc2c1[H]

$$$$
Z990898380_pose5
     RDKit          3D

 45 47  0  0  0  0  0  0  0  0999 V2000
    5.7207   47.5013   55.7853 O   0  0  0  0  0  0  0  0  0  0  0  0
    5.4484   46.6969   54.8989 C   0  0  0  0  0  0  0  0  0  0  0  0
    4.0875   46.0518   54.7470 C   0  0  0  0  0  0  0  0  0  0  0  0
    3.4347   46.4047   53.4155 C   0  0  0  0  0  0  0  0  0  0  0  0
    2.9810   45.2195   52.7022 N   0  0  0  0  0  0  0  0  0  0  0  0
    3.7747   44.5373   51.8282 C   0  0  0  0  0  0  0  0  0  0  0  0
    4.8929   45.0091   51.3749 N   0  0  0  0  0  0  0  0  0  0  0  0
    5.6418   44.2290   50.4795 C   0  0  0  0  0  0  0  0  0  0  0  0
    6.8470   44.7336   49.9867 C   0  0  0  0  0  0  0  0  0  0  0  0
    7.6211   43.9855   49.0945 C   0  0  0  0  0  0  0  0  0  0  0  0
    7.1949   42.7216   48.6861 C   0  0  0  0  0  0  0  0  0  0  0  0
    5.9936   42.2045   49.1682 C   0  0  0  0  0  0  0  0  0  0  0  0
    5.2297   42.9638   50.0588 C   0  0  0  0  0  0  0  0  0  0  0  0
    3.9549   42.4635   50.5935 C   0  0  0  0  0  0  0  0  0  0  0  0
    3.5018   41.3685   50.2798 O   0  0  0  0  0  0  0  0  0  0  0  0
    3.3108   43.3037   51.4653 N   0  0  0  0  0  0  0  0  0  0  0  0
    6.3514   46.2766   53.9427 N   0  0  0  0  0  0  0  0  0  0  0  0
    7.7521   46.6763   53.9896 C   0  0  0  0  0  0  0  0  0  0  0  0
    8.5572   46.0044   52.8740 C   0  0  0  0  0  0  0  0  0  0  0  0
   10.0485   46.3363   52.9685 C   0  0  0  0  0  0  0  0  0  0  0  0
   10.3345   47.6911   53.6172 C   0  0  0  0  0  0  0  0  0  0  0  0
    9.2167   48.6890   53.3564 C   0  0  0  0  0  0  0  0  0  0  0  0
    7.8748   48.2068   53.9159 C   0  0  0  0  0  0  0  0  0  0  0  0
    4.2033   44.9596   54.8076 H   0  0  0  0  0  0  0  0  0  0  0  0
    3.4408   46.4283   55.5533 H   0  0  0  0  0  0  0  0  0  0  0  0
    2.5704   47.0581   53.6053 H   0  0  0  0  0  0  0  0  0  0  0  0
    4.1856   46.9114   52.7915 H   0  0  0  0  0  0  0  0  0  0  0  0
    2.3367   44.6641   53.2613 H   0  0  0  0  0  0  0  0  0  0  0  0
    7.1906   45.7294   50.3034 H   0  0  0  0  0  0  0  0  0  0  0  0
    8.5685   44.3946   48.7137 H   0  0  0  0  0  0  0  0  0  0  0  0
    7.8058   42.1340   47.9850 H   0  0  0  0  0  0  0  0  0  0  0  0
    5.6503   41.2088   48.8508 H   0  0  0  0  0  0  0  0  0  0  0  0
    2.4233   42.9792   51.8126 H   0  0  0  0  0  0  0  0  0  0  0  0
    6.1151   45.4538   53.4037 H   0  0  0  0  0  0  0  0  0  0  0  0
    8.1736   46.3413   54.9488 H   0  0  0  0  0  0  0  0  0  0  0  0
    8.4297   44.9144   52.9501 H   0  0  0  0  0  0  0  0  0  0  0  0
    8.1842   46.3803   51.9098 H   0  0  0  0  0  0  0  0  0  0  0  0
   10.5416   45.5543   53.5646 H   0  0  0  0  0  0  0  0  0  0  0  0
   10.4341   46.3836   51.9394 H   0  0  0  0  0  0  0  0  0  0  0  0
   10.4406   47.5508   54.7030 H   0  0  0  0  0  0  0  0  0  0  0  0
   11.2601   48.0919   53.1783 H   0  0  0  0  0  0  0  0  0  0  0  0
    9.4767   49.6459   53.8326 H   0  0  0  0  0  0  0  0  0  0  0  0
    9.1096   48.8023   52.2675 H   0  0  0  0  0  0  0  0  0  0  0  0
    7.7546   48.6144   54.9305 H   0  0  0  0  0  0  0  0  0  0  0  0
    7.0931   48.5600   53.2274 H   0  0  0  0  0  0  0  0  0  0  0  0
  1  2  2  0
  2  3  1  0
  3  4  1  0
  4  5  1  0
  5  6  1  0
  6  7  2  0
  7  8  1  0
  8  9  2  0
  9 10  1  0
 10 11  2  0
 11 12  1  0
 12 13  2  0
 13 14  1  0
 14 15  2  0
 14 16  1  0
  2 17  1  0
 17 18  1  0
 18 19  1  0
 19 20  1  0
 20 21  1  0
 21 22  1  0
 22 23  1  0
 16  6  1  0
 23 18  1  0
 13  8  1  0
  3 24  1  0
  3 25  1  0
  4 26  1  0
  4 27  1  0
  5 28  1  0
  9 29  1  0
 10 30  1  0
 11 31  1  0
 12 32  1  0
 16 33  1  0
 17 34  1  0
 18 35  1  0
 19 36  1  0
 19 37  1  0
 20 38  1  0
 20 39  1  0
 21 40  1  0
 21 41  1  0
 22 42  1  0
 22 43  1  0
 23 44  1  0
 23 45  1  0
M  END
>  <meeko>  (5) 
{"is_sidechain": false}

>  <CID>  (5) 
Z990898380

>  <pose_index>  (5) 
5

>  <docking_score>  (5) 
-8.608

>  <rmsd_to_best_selected>  (5) 
1.418696936791304

>  <MWT>  (5) 
314.38899999999967

>  <TPSA>  (5) 
86.88

>  <logP>  (5) 
2.1739999999999995

>  <HBD>  (5) 
3

>  <HBA>  (5) 
4

>  <SMILES>  (5) 
[H]c1c([H])c([H])c2c(=O)n([H])c(N([H])C([H])([H])C([H])([H])C(=O)N([H])C3([H])C([H])([H])C([H])([H])C([H])([H])C([H])([H])C3([H])[H])nc2c1[H]

$$$$
Z990898380_pose6
     RDKit          3D

 45 47  0  0  0  0  0  0  0  0999 V2000
    6.0387   45.8771   56.1680 O   0  0  0  0  0  0  0  0  0  0  0  0
    5.3849   46.2514   55.1986 C   0  0  0  0  0  0  0  0  0  0  0  0
    3.8773   46.1404   55.1148 C   0  0  0  0  0  0  0  0  0  0  0  0
    3.3644   46.3742   53.6991 C   0  0  0  0  0  0  0  0  0  0  0  0
    3.1729   45.1244   52.9773 N   0  0  0  0  0  0  0  0  0  0  0  0
    4.0708   44.6561   52.0631 C   0  0  0  0  0  0  0  0  0  0  0  0
    5.0291   45.3822   51.5814 N   0  0  0  0  0  0  0  0  0  0  0  0
    5.9044   44.8094   50.6458 C   0  0  0  0  0  0  0  0  0  0  0  0
    6.9404   45.5878   50.1213 C   0  0  0  0  0  0  0  0  0  0  0  0
    7.8317   45.0515   49.1883 C   0  0  0  0  0  0  0  0  0  0  0  0
    7.6974   43.7276   48.7688 C   0  0  0  0  0  0  0  0  0  0  0  0
    6.6690   42.9387   49.2813 C   0  0  0  0  0  0  0  0  0  0  0  0
    5.7839   43.4880   50.2134 C   0  0  0  0  0  0  0  0  0  0  0  0
    4.6822   42.6965   50.7807 C   0  0  0  0  0  0  0  0  0  0  0  0
    4.4851   41.5309   50.4610 O   0  0  0  0  0  0  0  0  0  0  0  0
    3.8932   43.3534   51.6915 N   0  0  0  0  0  0  0  0  0  0  0  0
    5.9460   46.8112   54.0670 N   0  0  0  0  0  0  0  0  0  0  0  0
    7.3901   46.8886   53.8910 C   0  0  0  0  0  0  0  0  0  0  0  0
    7.9785   45.5192   53.5397 C   0  0  0  0  0  0  0  0  0  0  0  0
    9.5054   45.5618   53.4480 C   0  0  0  0  0  0  0  0  0  0  0  0
   10.0570   46.9277   53.0383 C   0  0  0  0  0  0  0  0  0  0  0  0
    9.0890   47.6791   52.1357 C   0  0  0  0  0  0  0  0  0  0  0  0
    7.7429   47.9338   52.8203 C   0  0  0  0  0  0  0  0  0  0  0  0
    3.5770   45.1331   55.4393 H   0  0  0  0  0  0  0  0  0  0  0  0
    3.4434   46.9144   55.7650 H   0  0  0  0  0  0  0  0  0  0  0  0
    2.4024   46.9049   53.7525 H   0  0  0  0  0  0  0  0  0  0  0  0
    4.1157   46.9683   53.1582 H   0  0  0  0  0  0  0  0  0  0  0  0
    2.6981   44.4274   53.5468 H   0  0  0  0  0  0  0  0  0  0  0  0
    7.0551   46.6325   50.4462 H   0  0  0  0  0  0  0  0  0  0  0  0
    8.6420   45.6752   48.7831 H   0  0  0  0  0  0  0  0  0  0  0  0
    8.4015   43.3075   48.0353 H   0  0  0  0  0  0  0  0  0  0  0  0
    6.5550   41.8942   48.9556 H   0  0  0  0  0  0  0  0  0  0  0  0
    3.1199   42.8268   52.0625 H   0  0  0  0  0  0  0  0  0  0  0  0
    5.3665   46.8750   53.2401 H   0  0  0  0  0  0  0  0  0  0  0  0
    7.8373   47.2056   54.8448 H   0  0  0  0  0  0  0  0  0  0  0  0
    7.6888   44.7973   54.3175 H   0  0  0  0  0  0  0  0  0  0  0  0
    7.5856   45.2210   52.5565 H   0  0  0  0  0  0  0  0  0  0  0  0
    9.9202   45.3006   54.4327 H   0  0  0  0  0  0  0  0  0  0  0  0
    9.8012   44.8472   52.6658 H   0  0  0  0  0  0  0  0  0  0  0  0
   10.2368   47.5255   53.9440 H   0  0  0  0  0  0  0  0  0  0  0  0
   10.9909   46.7664   52.4800 H   0  0  0  0  0  0  0  0  0  0  0  0
    9.5366   48.6461   51.8625 H   0  0  0  0  0  0  0  0  0  0  0  0
    8.9047   47.0593   51.2458 H   0  0  0  0  0  0  0  0  0  0  0  0
    7.7776   48.9237   53.2986 H   0  0  0  0  0  0  0  0  0  0  0  0
    6.9681   47.8725   52.0419 H   0  0  0  0  0  0  0  0  0  0  0  0
  1  2  2  0
  2  3  1  0
  3  4  1  0
  4  5  1  0
  5  6  1  0
  6  7  2  0
  7  8  1  0
  8  9  2  0
  9 10  1  0
 10 11  2  0
 11 12  1  0
 12 13  2  0
 13 14  1  0
 14 15  2  0
 14 16  1  0
  2 17  1  0
 17 18  1  0
 18 19  1  0
 19 20  1  0
 20 21  1  0
 21 22  1  0
 22 23  1  0
 16  6  1  0
 23 18  1  0
 13  8  1  0
  3 24  1  0
  3 25  1  0
  4 26  1  0
  4 27  1  0
  5 28  1  0
  9 29  1  0
 10 30  1  0
 11 31  1  0
 12 32  1  0
 16 33  1  0
 17 34  1  0
 18 35  1  0
 19 36  1  0
 19 37  1  0
 20 38  1  0
 20 39  1  0
 21 40  1  0
 21 41  1  0
 22 42  1  0
 22 43  1  0
 23 44  1  0
 23 45  1  0
M  END
>  <meeko>  (6) 
{"is_sidechain": false}

>  <CID>  (6) 
Z990898380

>  <pose_index>  (6) 
6

>  <docking_score>  (6) 
-8.456

>  <rmsd_to_best_selected>  (6) 
1.1373847998747566

>  <MWT>  (6) 
314.38899999999967

>  <TPSA>  (6) 
86.88

>  <logP>  (6) 
2.1739999999999995

>  <HBD>  (6) 
3

>  <HBA>  (6) 
4

>  <SMILES>  (6) 
[H]c1c([H])c([H])c2c(=O)n([H])c(N([H])C([H])([H])C([H])([H])C(=O)N([H])C3([H])C([H])([H])C([H])([H])C([H])([H])C([H])([H])C3([H])[H])nc2c1[H]

$$$$
Z990898380_pose7
     RDKit          3D

 45 47  0  0  0  0  0  0  0  0999 V2000
    5.4243   45.6000   55.5740 O   0  0  0  0  0  0  0  0  0  0  0  0
    5.0838   46.4526   54.7586 C   0  0  0  0  0  0  0  0  0  0  0  0
    3.6527   46.9112   54.5769 C   0  0  0  0  0  0  0  0  0  0  0  0
    2.9884   46.2452   53.3784 C   0  0  0  0  0  0  0  0  0  0  0  0
    3.3758   44.8480   53.2482 N   0  0  0  0  0  0  0  0  0  0  0  0
    4.2704   44.4166   52.3138 C   0  0  0  0  0  0  0  0  0  0  0  0
    4.6598   45.1490   51.3186 N   0  0  0  0  0  0  0  0  0  0  0  0
    5.5859   44.6152   50.4096 C   0  0  0  0  0  0  0  0  0  0  0  0
    6.0094   45.4010   49.3337 C   0  0  0  0  0  0  0  0  0  0  0  0
    6.9313   44.9041   48.4078 C   0  0  0  0  0  0  0  0  0  0  0  0
    7.4411   43.6130   48.5494 C   0  0  0  0  0  0  0  0  0  0  0  0
    7.0290   42.8167   49.6164 C   0  0  0  0  0  0  0  0  0  0  0  0
    6.1053   43.3268   50.5341 C   0  0  0  0  0  0  0  0  0  0  0  0
    5.6378   42.5246   51.6744 C   0  0  0  0  0  0  0  0  0  0  0  0
    6.0270   41.3790   51.8687 O   0  0  0  0  0  0  0  0  0  0  0  0
    4.7398   43.1468   52.5034 N   0  0  0  0  0  0  0  0  0  0  0  0
    5.9650   47.0898   53.9068 N   0  0  0  0  0  0  0  0  0  0  0  0
    7.3669   46.7008   53.8303 C   0  0  0  0  0  0  0  0  0  0  0  0
    7.6981   46.0934   52.4649 C   0  0  0  0  0  0  0  0  0  0  0  0
    9.1425   45.5894   52.4008 C   0  0  0  0  0  0  0  0  0  0  0  0
   10.0976   46.3497   53.3217 C   0  0  0  0  0  0  0  0  0  0  0  0
    9.6670   47.7976   53.5109 C   0  0  0  0  0  0  0  0  0  0  0  0
    8.2729   47.9056   54.1348 C   0  0  0  0  0  0  0  0  0  0  0  0
    3.0819   46.6616   55.4835 H   0  0  0  0  0  0  0  0  0  0  0  0
    3.6634   47.9968   54.4001 H   0  0  0  0  0  0  0  0  0  0  0  0
    1.8966   46.3014   53.5005 H   0  0  0  0  0  0  0  0  0  0  0  0
    3.3143   46.7747   52.4709 H   0  0  0  0  0  0  0  0  0  0  0  0
    3.3949   44.3744   54.1492 H   0  0  0  0  0  0  0  0  0  0  0  0
    5.6133   46.4202   49.2146 H   0  0  0  0  0  0  0  0  0  0  0  0
    7.2558   45.5327   47.5654 H   0  0  0  0  0  0  0  0  0  0  0  0
    8.1671   43.2243   47.8200 H   0  0  0  0  0  0  0  0  0  0  0  0
    7.4260   41.7978   49.7353 H   0  0  0  0  0  0  0  0  0  0  0  0
    4.3933   42.5936   53.2697 H   0  0  0  0  0  0  0  0  0  0  0  0
    5.5743   47.5985   53.1241 H   0  0  0  0  0  0  0  0  0  0  0  0
    7.5525   45.9269   54.5897 H   0  0  0  0  0  0  0  0  0  0  0  0
    7.0181   45.2496   52.2764 H   0  0  0  0  0  0  0  0  0  0  0  0
    7.5761   46.8780   51.7036 H   0  0  0  0  0  0  0  0  0  0  0  0
    9.1535   44.5277   52.6885 H   0  0  0  0  0  0  0  0  0  0  0  0
    9.4939   45.7473   51.3704 H   0  0  0  0  0  0  0  0  0  0  0  0
   10.1172   45.8529   54.3029 H   0  0  0  0  0  0  0  0  0  0  0  0
   11.0949   46.3472   52.8576 H   0  0  0  0  0  0  0  0  0  0  0  0
   10.3906   48.2999   54.1697 H   0  0  0  0  0  0  0  0  0  0  0  0
    9.6332   48.2738   52.5199 H   0  0  0  0  0  0  0  0  0  0  0  0
    8.3857   47.9889   55.2258 H   0  0  0  0  0  0  0  0  0  0  0  0
    7.7905   48.7911   53.6951 H   0  0  0  0  0  0  0  0  0  0  0  0
  1  2  2  0
  2  3  1  0
  3  4  1  0
  4  5  1  0
  5  6  1  0
  6  7  2  0
  7  8  1  0
  8  9  2  0
  9 10  1  0
 10 11  2  0
 11 12  1  0
 12 13  2  0
 13 14  1  0
 14 15  2  0
 14 16  1  0
  2 17  1  0
 17 18  1  0
 18 19  1  0
 19 20  1  0
 20 21  1  0
 21 22  1  0
 22 23  1  0
 16  6  1  0
 23 18  1  0
 13  8  1  0
  3 24  1  0
  3 25  1  0
  4 26  1  0
  4 27  1  0
  5 28  1  0
  9 29  1  0
 10 30  1  0
 11 31  1  0
 12 32  1  0
 16 33  1  0
 17 34  1  0
 18 35  1  0
 19 36  1  0
 19 37  1  0
 20 38  1  0
 20 39  1  0
 21 40  1  0
 21 41  1  0
 22 42  1  0
 22 43  1  0
 23 44  1  0
 23 45  1  0
M  END
>  <meeko>  (7) 
{"is_sidechain": false}

>  <CID>  (7) 
Z990898380

>  <pose_index>  (7) 
7

>  <docking_score>  (7) 
-8.443

>  <rmsd_to_best_selected>  (7) 
1.2546996492346563

>  <MWT>  (7) 
314.38899999999967

>  <TPSA>  (7) 
86.88

>  <logP>  (7) 
2.1739999999999995

>  <HBD>  (7) 
3

>  <HBA>  (7) 
4

>  <SMILES>  (7) 
[H]c1c([H])c([H])c2c(=O)n([H])c(N([H])C([H])([H])C([H])([H])C(=O)N([H])C3([H])C([H])([H])C([H])([H])C([H])([H])C([H])([H])C3([H])[H])nc2c1[H]

$$$$
Z990898380_pose9
     RDKit          3D

 45 47  0  0  0  0  0  0  0  0999 V2000
    5.0950   48.8995   53.8590 O   0  0  0  0  0  0  0  0  0  0  0  0
    5.0230   47.6754   53.8013 C   0  0  0  0  0  0  0  0  0  0  0  0
    3.7274   46.9056   53.9497 C   0  0  0  0  0  0  0  0  0  0  0  0
    3.9612   45.4809   54.4352 C   0  0  0  0  0  0  0  0  0  0  0  0
    3.3927   44.4960   53.5264 N   0  0  0  0  0  0  0  0  0  0  0  0
    4.0702   44.0128   52.4464 C   0  0  0  0  0  0  0  0  0  0  0  0
    5.1583   44.5539   51.9980 N   0  0  0  0  0  0  0  0  0  0  0  0
    5.7848   43.9811   50.8795 C   0  0  0  0  0  0  0  0  0  0  0  0
    6.9583   44.5604   50.3899 C   0  0  0  0  0  0  0  0  0  0  0  0
    7.6108   44.0179   49.2789 C   0  0  0  0  0  0  0  0  0  0  0  0
    7.0949   42.8862   48.6452 C   0  0  0  0  0  0  0  0  0  0  0  0
    5.9245   42.2974   49.1209 C   0  0  0  0  0  0  0  0  0  0  0  0
    5.2824   42.8510   50.2327 C   0  0  0  0  0  0  0  0  0  0  0  0
    4.0443   42.2682   50.7697 C   0  0  0  0  0  0  0  0  0  0  0  0
    3.5176   41.2815   50.2687 O   0  0  0  0  0  0  0  0  0  0  0  0
    3.5226   42.9027   51.8684 N   0  0  0  0  0  0  0  0  0  0  0  0
    6.1153   46.8537   53.6009 N   0  0  0  0  0  0  0  0  0  0  0  0
    7.4721   47.3850   53.5647 C   0  0  0  0  0  0  0  0  0  0  0  0
    8.4421   46.4775   54.3239 C   0  0  0  0  0  0  0  0  0  0  0  0
    9.8520   47.0703   54.3799 C   0  0  0  0  0  0  0  0  0  0  0  0
   10.1828   47.9756   53.1927 C   0  0  0  0  0  0  0  0  0  0  0  0
    9.4471   47.5456   51.9322 C   0  0  0  0  0  0  0  0  0  0  0  0
    7.9273   47.5891   52.1109 C   0  0  0  0  0  0  0  0  0  0  0  0
    3.0858   47.4270   54.6753 H   0  0  0  0  0  0  0  0  0  0  0  0
    3.2490   46.8527   52.9606 H   0  0  0  0  0  0  0  0  0  0  0  0
    5.0443   45.3064   54.5161 H   0  0  0  0  0  0  0  0  0  0  0  0
    3.4667   45.3687   55.4114 H   0  0  0  0  0  0  0  0  0  0  0  0
    2.7815   43.8419   54.0117 H   0  0  0  0  0  0  0  0  0  0  0  0
    7.3726   45.4520   50.8833 H   0  0  0  0  0  0  0  0  0  0  0  0
    8.5335   44.4842   48.9030 H   0  0  0  0  0  0  0  0  0  0  0  0
    7.6108   42.4599   47.7723 H   0  0  0  0  0  0  0  0  0  0  0  0
    5.5102   41.4063   48.6267 H   0  0  0  0  0  0  0  0  0  0  0  0
    2.6599   42.5259   52.2238 H   0  0  0  0  0  0  0  0  0  0  0  0
    6.0020   45.8674   53.7962 H   0  0  0  0  0  0  0  0  0  0  0  0
    7.4729   48.3630   54.0683 H   0  0  0  0  0  0  0  0  0  0  0  0
    8.0723   46.3416   55.3509 H   0  0  0  0  0  0  0  0  0  0  0  0
    8.4971   45.5161   53.7921 H   0  0  0  0  0  0  0  0  0  0  0  0
    9.9448   47.6604   55.3036 H   0  0  0  0  0  0  0  0  0  0  0  0
   10.5580   46.2273   54.3495 H   0  0  0  0  0  0  0  0  0  0  0  0
    9.8925   49.0074   53.4400 H   0  0  0  0  0  0  0  0  0  0  0  0
   11.2633   47.9045   52.9991 H   0  0  0  0  0  0  0  0  0  0  0  0
    9.7273   48.2205   51.1100 H   0  0  0  0  0  0  0  0  0  0  0  0
    9.7331   46.5069   51.7099 H   0  0  0  0  0  0  0  0  0  0  0  0
    7.5647   48.5692   51.7675 H   0  0  0  0  0  0  0  0  0  0  0  0
    7.5096   46.7587   51.5228 H   0  0  0  0  0  0  0  0  0  0  0  0
  1  2  2  0
  2  3  1  0
  3  4  1  0
  4  5  1  0
  5  6  1  0
  6  7  2  0
  7  8  1  0
  8  9  2  0
  9 10  1  0
 10 11  2  0
 11 12  1  0
 12 13  2  0
 13 14  1  0
 14 15  2  0
 14 16  1  0
  2 17  1  0
 17 18  1  0
 18 19  1  0
 19 20  1  0
 20 21  1  0
 21 22  1  0
 22 23  1  0
 16  6  1  0
 23 18  1  0
 13  8  1  0
  3 24  1  0
  3 25  1  0
  4 26  1  0
  4 27  1  0
  5 28  1  0
  9 29  1  0
 10 30  1  0
 11 31  1  0
 12 32  1  0
 16 33  1  0
 17 34  1  0
 18 35  1  0
 19 36  1  0
 19 37  1  0
 20 38  1  0
 20 39  1  0
 21 40  1  0
 21 41  1  0
 22 42  1  0
 22 43  1  0
 23 44  1  0
 23 45  1  0
M  END
>  <meeko>  (8) 
{"is_sidechain": false}

>  <CID>  (8) 
Z990898380

>  <pose_index>  (8) 
9

>  <docking_score>  (8) 
-8.267

>  <rmsd_to_best_selected>  (8) 
1.4246975893300575

>  <MWT>  (8) 
314.38899999999967

>  <TPSA>  (8) 
86.88

>  <logP>  (8) 
2.1739999999999995

>  <HBD>  (8) 
3

>  <HBA>  (8) 
4

>  <SMILES>  (8) 
[H]c1c([H])c([H])c2c(=O)n([H])c(N([H])C([H])([H])C([H])([H])C(=O)N([H])C3([H])C([H])([H])C([H])([H])C([H])([H])C([H])([H])C3([H])[H])nc2c1[H]

$$$$
